Test_Network/network_26/Feeder_1/LinesUnq_pruned.txt
New Line.LINE171_32 Bus1=171_32 Bus2=171_33 phases=3 Linecode=4c_.25 Length=1.5571 Units=m
New Line.LINE171_33 Bus1=171_32 Bus2=171_34 phases=3 Linecode=4c_.25 Length=1.5571 Units=m
New Line.LINE171_34 Bus1=171_33 Bus2=171_35 phases=3 Linecode=4c_.25 Length=7.5169 Units=m
New Line.LINE171_35 Bus1=171_33 Bus2=171_36 phases=3 Linecode=4c_.25 Length=7.5169 Units=m
New Line.LINE171_36 Bus1=171_35 Bus2=171_37 phases=3 Linecode=4c_.25 Length=1.1775 Units=m
New Line.LINE171_37 Bus1=171_35 Bus2=171_38 phases=3 Linecode=4c_.25 Length=1.1775 Units=m
New Line.LINE171_38 Bus1=171_37 Bus2=171_39 phases=3 Linecode=4c_.25 Length=0.406 Units=m
New Line.LINE171_39 Bus1=171_37 Bus2=171_40 phases=3 Linecode=4c_.25 Length=0.406 Units=m
New Line.LINE171_40 Bus1=171_39 Bus2=171_41 phases=3 Linecode=4c_.25 Length=0.38134 Units=m
New Line.LINE171_41 Bus1=171_39 Bus2=171_42 phases=3 Linecode=4c_.25 Length=0.38134 Units=m
New Line.LINE171_42 Bus1=171_41 Bus2=171_43 phases=3 Linecode=4c_.25 Length=0.41665 Units=m
New Line.LINE171_43 Bus1=171_41 Bus2=171_44 phases=3 Linecode=4c_.25 Length=0.41665 Units=m
New Line.LINE171_44 Bus1=171_43 Bus2=171_45 phases=3 Linecode=4c_.25 Length=0.2658 Units=m
New Line.LINE171_45 Bus1=171_43 Bus2=171_46 phases=3 Linecode=4c_.25 Length=0.2658 Units=m
New Line.LINE171_46 Bus1=171_45 Bus2=171_47 phases=3 Linecode=4c_.25 Length=0.2377 Units=m
New Line.LINE171_47 Bus1=171_45 Bus2=171_48 phases=3 Linecode=4c_.25 Length=0.2377 Units=m
New Line.LINE171_48 Bus1=171_47 Bus2=171_49 phases=3 Linecode=4c_.25 Length=0.23755 Units=m
New Line.LINE171_49 Bus1=171_47 Bus2=171_50 phases=3 Linecode=4c_.25 Length=0.23755 Units=m
New Line.LINE171_50 Bus1=171_49 Bus2=171_51 phases=3 Linecode=4c_.25 Length=1.0978 Units=m
New Line.LINE171_51 Bus1=171_49 Bus2=171_52 phases=3 Linecode=4c_.25 Length=1.0978 Units=m
New Line.LINE171_52 Bus1=171_51 Bus2=171_53 phases=3 Linecode=4c_.25 Length=23.3695 Units=m
New Line.LINE171_53 Bus1=171_51 Bus2=171_54 phases=3 Linecode=4c_.25 Length=23.3695 Units=m
New Line.LINE171_54 Bus1=171_53 Bus2=171_55 phases=3 Linecode=4c_.25 Length=1.9527 Units=m
New Line.LINE171_55 Bus1=171_53 Bus2=171_56 phases=3 Linecode=2c_.04 Length=6.7095 Units=m
New Line.LINE171_56 Bus1=171_53 Bus2=171_57 phases=3 Linecode=4c_.25 Length=1.9527 Units=m
New Line.LINE171_57 Bus1=171_55 Bus2=171_58 phases=3 Linecode=4c_.25 Length=5.6386 Units=m
New Line.LINE171_61 Bus1=171_58 Bus2=171_62 phases=3 Linecode=4c_.25 Length=4.8727 Units=m
New Line.LINE171_62 Bus1=171_58 Bus2=171_63 phases=3 Linecode=4c_.25 Length=4.8727 Units=m
New Line.LINE171_63 Bus1=171_58 Bus2=171_64 phases=3 Linecode=4c_.25 Length=0.3972 Units=m
New Line.LINE171_67 Bus1=171_62 Bus2=171_68 phases=3 Linecode=4c_.25 Length=24.3926 Units=m
New Line.LINE171_72 Bus1=171_68 Bus2=171_73 phases=3 Linecode=4c_.25 Length=7.4333 Units=m
New Line.LINE171_73 Bus1=171_68 Bus2=171_74 phases=3 Linecode=4c_.25 Length=7.4333 Units=m
New Line.LINE171_74 Bus1=171_68 Bus2=171_75 phases=3 Linecode=4c_.25 Length=13.0528 Units=m
New Line.LINE171_79 Bus1=171_73 Bus2=171_80 phases=3 Linecode=4c_.25 Length=8.054 Units=m
New Line.LINE171_80 Bus1=171_73 Bus2=171_81 phases=3 Linecode=4c_.25 Length=8.054 Units=m
New Line.LINE171_85 Bus1=171_80 Bus2=171_86 phases=3 Linecode=4c_.25 Length=3.1751 Units=m
New Line.LINE171_86 Bus1=171_80 Bus2=171_87 phases=3 Linecode=4c_.25 Length=3.1751 Units=m
New Line.LINE171_91 Bus1=171_86 Bus2=171_92 phases=3 Linecode=4c_.25 Length=3.7711 Units=m
New Line.LINE171_92 Bus1=171_86 Bus2=171_93 phases=3 Linecode=4c_.25 Length=3.7711 Units=m
New Line.LINE171_101 Bus1=171_96 Bus2=171_102 phases=3 Linecode=2c_.04 Length=3.3635 Units=m
New Line.LINE171_103 Bus1=171_97 Bus2=171_104 phases=3 Linecode=2c_.04 Length=4.0329 Units=m
New Line.LINE171_104 Bus1=171_97 Bus2=171_105 phases=3 Linecode=2c_.04 Length=0.71111 Units=m
New Line.LINE171_105 Bus1=171_97 Bus2=171_106 phases=3 Linecode=2c_.04 Length=0.71111 Units=m
New Line.LINE171_111 Bus1=171_105 Bus2=171_112 phases=3 Linecode=2c_.04 Length=0.22682 Units=m
New Line.LINE171_112 Bus1=171_105 Bus2=171_113 phases=3 Linecode=2c_.04 Length=0.22682 Units=m
New Line.LINE171_114 Bus1=171_107 Bus2=171_115 phases=3 Linecode=4c_.25 Length=8.3151 Units=m
New Line.LINE171_118 Bus1=171_112 Bus2=171_119 phases=3 Linecode=2c_.04 Length=0.116 Units=m
New Line.LINE171_119 Bus1=171_112 Bus2=171_120 phases=3 Linecode=2c_.04 Length=0.116 Units=m
New Line.LINE171_122 Bus1=171_115 Bus2=171_123 phases=3 Linecode=4c_.25 Length=4.1369 Units=m
New Line.LINE171_126 Bus1=171_119 Bus2=171_127 phases=3 Linecode=2c_.04 Length=0.13396 Units=m
New Line.LINE171_127 Bus1=171_119 Bus2=171_128 phases=3 Linecode=2c_.04 Length=0.13396 Units=m
New Line.LINE171_130 Bus1=171_123 Bus2=171_131 phases=3 Linecode=2c_.04 Length=7.2512 Units=m
New Line.LINE171_135 Bus1=171_127 Bus2=171_136 phases=3 Linecode=2c_.04 Length=0.053601 Units=m
New Line.LINE171_136 Bus1=171_127 Bus2=171_137 phases=3 Linecode=2c_.04 Length=0.053601 Units=m
New Line.LINE171_140 Bus1=171_131 Bus2=171_141 phases=3 Linecode=2c_.04 Length=4.6693 Units=m
New Line.LINE171_145 Bus1=171_136 Bus2=171_146 phases=3 Linecode=2c_.04 Length=0.12468 Units=m
New Line.LINE171_146 Bus1=171_136 Bus2=171_147 phases=3 Linecode=2c_.04 Length=0.12468 Units=m
New Line.LINE171_150 Bus1=171_142 Bus2=171_151 phases=3 Linecode=2c_.04 Length=6.0658 Units=m
New Line.LINE171_155 Bus1=171_146 Bus2=171_156 phases=3 Linecode=2c_.04 Length=1.4705 Units=m
New Line.LINE171_207 Bus1=171_198 Bus2=171_208 phases=3 Linecode=4c_.25 Length=4.3073 Units=m
New Line.LINE171_210 Bus1=171_200 Bus2=171_211 phases=3 Linecode=4c_.25 Length=11.0652 Units=m
New Line.LINE171_211 Bus1=171_201 Bus2=171_212 phases=3 Linecode=2c_.04 Length=4.0654 Units=m
New Line.LINE171_216 Bus1=171_205 Bus2=171_217 phases=3 Linecode=2c_.04 Length=4.0018 Units=m
New Line.LINE171_224 Bus1=171_211 Bus2=171_225 phases=3 Linecode=4c_.25 Length=13.706 Units=m
New Line.LINE171_227 Bus1=171_214 Bus2=171_228 phases=3 Linecode=2c_.04 Length=4.2218 Units=m
New Line.LINE171_231 Bus1=171_218 Bus2=171_232 phases=3 Linecode=2c_.04 Length=4.2077 Units=m
New Line.LINE171_239 Bus1=171_225 Bus2=171_240 phases=3 Linecode=4c_.25 Length=1.5617 Units=m
New Line.LINE171_257 Bus1=171_243 Bus2=171_258 phases=3 Linecode=2c_.04 Length=5.0758 Units=m
New Line.LINE171_266 Bus1=171_251 Bus2=171_267 phases=3 Linecode=2c_.04 Length=6.7974 Units=m
New Line.LINE171_280 Bus1=171_265 Bus2=171_281 phases=3 Linecode=2c_.04 Length=2.815 Units=m
New Line.LINE171_292 Bus1=171_278 Bus2=171_293 phases=3 Linecode=4c_.25 Length=9.6214 Units=m
New Line.LINE171_293 Bus1=171_278 Bus2=171_294 phases=3 Linecode=2c_.04 Length=7.5007 Units=m
New Line.LINE171_299 Bus1=171_284 Bus2=171_300 phases=3 Linecode=4c_.25 Length=10.3655 Units=m
New Line.LINE171_309 Bus1=171_294 Bus2=171_310 phases=3 Linecode=2c_.04 Length=2.467 Units=m
New Line.LINE171_346 Bus1=171_331 Bus2=171_347 phases=3 Linecode=2c_.04 Length=2.0509 Units=m
New Line.LINE171_347 Bus1=171_331 Bus2=171_348 phases=3 Linecode=4c_.25 Length=2.0509 Units=m
New Line.LINE171_348 Bus1=171_331 Bus2=171_349 phases=3 Linecode=4c_.25 Length=3.9607 Units=m
New Line.LINE171_365 Bus1=171_347 Bus2=171_366 phases=3 Linecode=2c_.04 Length=7.5169 Units=m
New Line.LINE171_366 Bus1=171_347 Bus2=171_367 phases=3 Linecode=2c_.04 Length=7.5169 Units=m
New Line.LINE171_367 Bus1=171_349 Bus2=171_368 phases=3 Linecode=2c_.04 Length=4.3534 Units=m
New Line.LINE171_384 Bus1=171_366 Bus2=171_385 phases=3 Linecode=2c_.04 Length=0.34637 Units=m
New Line.LINE171_385 Bus1=171_366 Bus2=171_386 phases=3 Linecode=2c_.04 Length=0.34637 Units=m
New Line.LINE171_404 Bus1=171_385 Bus2=171_405 phases=3 Linecode=2c_.04 Length=5.2475 Units=m
New Line.LINE171_405 Bus1=171_385 Bus2=171_406 phases=3 Linecode=2c_.04 Length=5.2475 Units=m
New Line.LINE171_424 Bus1=171_405 Bus2=171_425 phases=3 Linecode=2c_.04 Length=0.24271 Units=m
New Line.LINE171_425 Bus1=171_405 Bus2=171_426 phases=3 Linecode=2c_.04 Length=0.24271 Units=m
New Line.LINE171_440 Bus1=171_421 Bus2=171_441 phases=3 Linecode=2c_.04 Length=8.22 Units=m
New Line.LINE171_441 Bus1=171_421 Bus2=171_442 phases=3 Linecode=2c_.04 Length=3.4826 Units=m
New Line.LINE171_445 Bus1=171_424 Bus2=171_446 phases=3 Linecode=2c_.04 Length=4.5578 Units=m
New Line.LINE171_451 Bus1=171_430 Bus2=171_452 phases=3 Linecode=2c_.007 Length=0.15228 Units=m
New Line.LINE171_452 Bus1=171_430 Bus2=171_453 phases=3 Linecode=2c_.007 Length=0.15228 Units=m
New Line.LINE171_453 Bus1=171_430 Bus2=171_454 phases=3 Linecode=4c_.25 Length=5.4735 Units=m
New Line.LINE171_464 Bus1=171_444 Bus2=171_465 phases=3 Linecode=2c_.04 Length=4.384 Units=m
New Line.LINE171_471 Bus1=171_452 Bus2=171_472 phases=3 Linecode=2c_.007 Length=0.191 Units=m
New Line.LINE171_472 Bus1=171_452 Bus2=171_473 phases=3 Linecode=2c_.007 Length=0.191 Units=m
New Line.LINE171_473 Bus1=171_454 Bus2=171_474 phases=3 Linecode=4c_.12 Length=0.30327 Units=m
New Line.LINE171_474 Bus1=171_454 Bus2=171_475 phases=3 Linecode=4c_.25 Length=4.2746 Units=m
New Line.LINE171_475 Bus1=171_454 Bus2=171_476 phases=3 Linecode=4c_.12 Length=0.30327 Units=m
New Line.LINE171_476 Bus1=171_454 Bus2=171_477 phases=3 Linecode=4c_.25 Length=4.2746 Units=m
New Line.LINE171_492 Bus1=171_469 Bus2=171_493 phases=3 Linecode=2c_25 Length=5.3207 Units=m
New Line.LINE171_495 Bus1=171_472 Bus2=171_496 phases=3 Linecode=2c_.007 Length=0.3644 Units=m
New Line.LINE171_496 Bus1=171_472 Bus2=171_497 phases=3 Linecode=2c_.007 Length=0.3644 Units=m
New Line.LINE171_497 Bus1=171_474 Bus2=171_498 phases=3 Linecode=4c_.12 Length=0.099021 Units=m
New Line.LINE171_498 Bus1=171_474 Bus2=171_499 phases=3 Linecode=4c_.12 Length=0.099021 Units=m
New Line.LINE171_499 Bus1=171_475 Bus2=171_500 phases=3 Linecode=4c_.25 Length=11.1591 Units=m
New Line.LINE171_500 Bus1=171_475 Bus2=171_501 phases=3 Linecode=4c_.25 Length=11.1591 Units=m
New Line.LINE171_506 Bus1=171_483 Bus2=171_507 phases=3 Linecode=3c_.04 Length=3.5235 Units=m
New Line.LINE171_517 Bus1=171_494 Bus2=171_518 phases=3 Linecode=2c_25 Length=6.9692 Units=m
New Line.LINE171_519 Bus1=171_496 Bus2=171_520 phases=3 Linecode=2c_.007 Length=0.229 Units=m
New Line.LINE171_520 Bus1=171_496 Bus2=171_521 phases=3 Linecode=2c_.007 Length=0.229 Units=m
New Line.LINE171_521 Bus1=171_498 Bus2=171_522 phases=3 Linecode=4c_.12 Length=0.14776 Units=m
New Line.LINE171_522 Bus1=171_498 Bus2=171_523 phases=3 Linecode=4c_.12 Length=0.14776 Units=m
New Line.LINE171_523 Bus1=171_500 Bus2=171_524 phases=3 Linecode=4c_.25 Length=2.0969 Units=m
New Line.LINE171_524 Bus1=171_500 Bus2=171_525 phases=3 Linecode=4c_.25 Length=2.0969 Units=m
New Line.LINE171_527 Bus1=171_504 Bus2=171_528 phases=3 Linecode=2c_.04 Length=7.2537 Units=m
New Line.LINE171_528 Bus1=171_504 Bus2=171_529 phases=3 Linecode=4c_.06 Length=1.6403 Units=m
New Line.LINE171_530 Bus1=171_505 Bus2=171_531 phases=3 Linecode=3c_.04 Length=5.3906 Units=m
New Line.LINE171_543 Bus1=171_520 Bus2=171_544 phases=3 Linecode=2c_.007 Length=1.58 Units=m
New Line.LINE171_544 Bus1=171_520 Bus2=171_545 phases=3 Linecode=2c_.007 Length=1.58 Units=m
New Line.LINE171_545 Bus1=171_522 Bus2=171_546 phases=3 Linecode=4c_.12 Length=0.23526 Units=m
New Line.LINE171_546 Bus1=171_522 Bus2=171_547 phases=3 Linecode=4c_.12 Length=0.23526 Units=m
New Line.LINE171_547 Bus1=171_524 Bus2=171_548 phases=3 Linecode=4c_.06 Length=0.19488 Units=m
New Line.LINE171_548 Bus1=171_524 Bus2=171_549 phases=3 Linecode=4c_.25 Length=4.4845 Units=m
New Line.LINE171_549 Bus1=171_524 Bus2=171_550 phases=3 Linecode=4c_.06 Length=0.19488 Units=m
New Line.LINE171_559 Bus1=171_534 Bus2=171_560 phases=3 Linecode=2c_.04 Length=4.8635 Units=m
New Line.LINE171_569 Bus1=171_544 Bus2=171_570 phases=3 Linecode=2c_.007 Length=7.2733 Units=m
New Line.LINE171_570 Bus1=171_544 Bus2=171_571 phases=3 Linecode=2c_.007 Length=7.2733 Units=m
New Line.LINE171_571 Bus1=171_546 Bus2=171_572 phases=3 Linecode=4c_.12 Length=0.12778 Units=m
New Line.LINE171_572 Bus1=171_546 Bus2=171_573 phases=3 Linecode=4c_.12 Length=0.12778 Units=m
New Line.LINE171_573 Bus1=171_548 Bus2=171_574 phases=3 Linecode=4c_.06 Length=0.226 Units=m
New Line.LINE171_574 Bus1=171_548 Bus2=171_575 phases=3 Linecode=4c_.06 Length=0.226 Units=m
New Line.LINE171_576 Bus1=171_549 Bus2=171_577 phases=3 Linecode=4c_.25 Length=8.2993 Units=m
New Line.LINE171_589 Bus1=171_565 Bus2=171_590 phases=3 Linecode=2c_.04 Length=3.7153 Units=m
New Line.LINE171_595 Bus1=171_570 Bus2=171_596 phases=3 Linecode=2c_.007 Length=0.63434 Units=m
New Line.LINE171_596 Bus1=171_570 Bus2=171_597 phases=3 Linecode=2c_.007 Length=0.63434 Units=m
New Line.LINE171_597 Bus1=171_572 Bus2=171_598 phases=3 Linecode=4c_.12 Length=0.14674 Units=m
New Line.LINE171_598 Bus1=171_572 Bus2=171_599 phases=3 Linecode=4c_.12 Length=0.14674 Units=m
New Line.LINE171_599 Bus1=171_574 Bus2=171_600 phases=3 Linecode=4c_.06 Length=0.26816 Units=m
New Line.LINE171_600 Bus1=171_574 Bus2=171_601 phases=3 Linecode=4c_.06 Length=0.26816 Units=m
New Line.LINE171_602 Bus1=171_577 Bus2=171_603 phases=3 Linecode=2c_.04 Length=8.5981 Units=m
New Line.LINE171_603 Bus1=171_577 Bus2=171_604 phases=3 Linecode=4c_.25 Length=4.3797 Units=m
New Line.LINE171_604 Bus1=171_577 Bus2=171_605 phases=3 Linecode=2c_.04 Length=8.5981 Units=m
New Line.LINE171_619 Bus1=171_592 Bus2=171_620 phases=3 Linecode=2c_.04 Length=4.7061 Units=m
New Line.LINE171_620 Bus1=171_592 Bus2=171_621 phases=3 Linecode=2c_.04 Length=0.44411 Units=m
New Line.LINE171_621 Bus1=171_592 Bus2=171_622 phases=3 Linecode=2c_.04 Length=0.44411 Units=m
New Line.LINE171_624 Bus1=171_596 Bus2=171_625 phases=3 Linecode=2c_.007 Length=0.12503 Units=m
New Line.LINE171_625 Bus1=171_596 Bus2=171_626 phases=3 Linecode=2c_.007 Length=0.12503 Units=m
New Line.LINE171_626 Bus1=171_598 Bus2=171_627 phases=3 Linecode=4c_.12 Length=0.15532 Units=m
New Line.LINE171_627 Bus1=171_598 Bus2=171_628 phases=3 Linecode=4c_.12 Length=0.15532 Units=m
New Line.LINE171_628 Bus1=171_600 Bus2=171_629 phases=3 Linecode=4c_.06 Length=1.6267 Units=m
New Line.LINE171_629 Bus1=171_600 Bus2=171_630 phases=3 Linecode=4c_.06 Length=1.6267 Units=m
New Line.LINE171_631 Bus1=171_603 Bus2=171_632 phases=3 Linecode=2c_.04 Length=0.34075 Units=m
New Line.LINE171_632 Bus1=171_603 Bus2=171_633 phases=3 Linecode=2c_.04 Length=0.34075 Units=m
New Line.LINE171_634 Bus1=171_604 Bus2=171_635 phases=3 Linecode=4c_.25 Length=11.0783 Units=m
New Line.LINE171_638 Bus1=171_609 Bus2=171_639 phases=3 Linecode=4c_.04 Length=1.1767 Units=m
New Line.LINE171_650 Bus1=171_621 Bus2=171_651 phases=3 Linecode=2c_.04 Length=0.31851 Units=m
New Line.LINE171_651 Bus1=171_621 Bus2=171_652 phases=3 Linecode=2c_.04 Length=0.31851 Units=m
New Line.LINE171_654 Bus1=171_625 Bus2=171_655 phases=3 Linecode=2c_.007 Length=0.12458 Units=m
New Line.LINE171_655 Bus1=171_625 Bus2=171_656 phases=3 Linecode=2c_.007 Length=0.12458 Units=m
New Line.LINE171_656 Bus1=171_627 Bus2=171_657 phases=3 Linecode=4c_.12 Length=0.22547 Units=m
New Line.LINE171_657 Bus1=171_627 Bus2=171_658 phases=3 Linecode=4c_.12 Length=0.22547 Units=m
New Line.LINE171_658 Bus1=171_629 Bus2=171_659 phases=3 Linecode=4c_.06 Length=0.65031 Units=m
New Line.LINE171_659 Bus1=171_629 Bus2=171_660 phases=3 Linecode=4c_.06 Length=0.65031 Units=m
New Line.LINE171_661 Bus1=171_632 Bus2=171_662 phases=3 Linecode=2c_.04 Length=0.47823 Units=m
New Line.LINE171_662 Bus1=171_632 Bus2=171_663 phases=3 Linecode=2c_.04 Length=0.47823 Units=m
New Line.LINE171_665 Bus1=171_635 Bus2=171_666 phases=3 Linecode=4c_.25 Length=7.5621 Units=m
New Line.LINE171_668 Bus1=171_639 Bus2=171_669 phases=3 Linecode=4c_.04 Length=7.8365 Units=m
New Line.LINE171_681 Bus1=171_651 Bus2=171_682 phases=3 Linecode=2c_.04 Length=0.2201 Units=m
New Line.LINE171_682 Bus1=171_651 Bus2=171_683 phases=3 Linecode=2c_.04 Length=0.2201 Units=m
New Line.LINE171_685 Bus1=171_655 Bus2=171_686 phases=3 Linecode=2c_.007 Length=0.12925 Units=m
New Line.LINE171_686 Bus1=171_655 Bus2=171_687 phases=3 Linecode=2c_.007 Length=0.12925 Units=m
New Line.LINE171_687 Bus1=171_657 Bus2=171_688 phases=3 Linecode=4c_.12 Length=1.4748 Units=m
New Line.LINE171_688 Bus1=171_657 Bus2=171_689 phases=3 Linecode=4c_.12 Length=1.4748 Units=m
New Line.LINE171_689 Bus1=171_659 Bus2=171_690 phases=3 Linecode=4c_.06 Length=0.45069 Units=m
New Line.LINE171_690 Bus1=171_659 Bus2=171_691 phases=3 Linecode=4c_.06 Length=0.45069 Units=m
New Line.LINE171_692 Bus1=171_662 Bus2=171_693 phases=3 Linecode=2c_.04 Length=0.2706 Units=m
New Line.LINE171_693 Bus1=171_662 Bus2=171_694 phases=3 Linecode=2c_.04 Length=0.2706 Units=m
New Line.LINE171_699 Bus1=171_667 Bus2=171_700 phases=3 Linecode=2c_.04 Length=5.4667 Units=m
New Line.LINE171_701 Bus1=171_668 Bus2=171_702 phases=3 Linecode=2c_.04 Length=4.8917 Units=m
New Line.LINE171_702 Bus1=171_669 Bus2=171_703 phases=3 Linecode=16_PSC Length=7.7524 Units=m
New Line.LINE171_714 Bus1=171_682 Bus2=171_715 phases=3 Linecode=2c_.04 Length=0.10576 Units=m
New Line.LINE171_715 Bus1=171_682 Bus2=171_716 phases=3 Linecode=2c_.04 Length=0.10576 Units=m
New Line.LINE171_718 Bus1=171_686 Bus2=171_719 phases=3 Linecode=2c_.007 Length=1.0665 Units=m
New Line.LINE171_719 Bus1=171_686 Bus2=171_720 phases=3 Linecode=2c_.007 Length=1.0665 Units=m
New Line.LINE171_720 Bus1=171_688 Bus2=171_721 phases=3 Linecode=4c_.12 Length=1.9575 Units=m
New Line.LINE171_721 Bus1=171_688 Bus2=171_722 phases=3 Linecode=4c_.12 Length=1.9575 Units=m
New Line.LINE171_722 Bus1=171_690 Bus2=171_723 phases=3 Linecode=4c_.06 Length=0.44106 Units=m
New Line.LINE171_723 Bus1=171_690 Bus2=171_724 phases=3 Linecode=4c_.06 Length=0.44106 Units=m
New Line.LINE171_725 Bus1=171_693 Bus2=171_726 phases=3 Linecode=2c_.04 Length=0.24613 Units=m
New Line.LINE171_726 Bus1=171_693 Bus2=171_727 phases=3 Linecode=2c_.04 Length=0.24613 Units=m
New Line.LINE171_745 Bus1=171_715 Bus2=171_746 phases=3 Linecode=2c_.04 Length=0.2415 Units=m
New Line.LINE171_746 Bus1=171_715 Bus2=171_747 phases=3 Linecode=2c_.04 Length=0.2415 Units=m
New Line.LINE171_749 Bus1=171_721 Bus2=171_750 phases=3 Linecode=4c_.12 Length=2.7016 Units=m
New Line.LINE171_750 Bus1=171_721 Bus2=171_751 phases=3 Linecode=4c_.12 Length=2.7016 Units=m
New Line.LINE171_751 Bus1=171_723 Bus2=171_752 phases=3 Linecode=4c_.06 Length=0.52274 Units=m
New Line.LINE171_752 Bus1=171_723 Bus2=171_753 phases=3 Linecode=4c_.06 Length=0.52274 Units=m
New Line.LINE171_754 Bus1=171_726 Bus2=171_755 phases=3 Linecode=2c_.04 Length=0.16737 Units=m
New Line.LINE171_755 Bus1=171_726 Bus2=171_756 phases=3 Linecode=2c_.04 Length=0.16737 Units=m
New Line.LINE171_775 Bus1=171_746 Bus2=171_776 phases=3 Linecode=2c_.04 Length=6.3121 Units=m
New Line.LINE171_776 Bus1=171_746 Bus2=171_777 phases=3 Linecode=2c_.04 Length=6.3121 Units=m
...
