Test_Network/network_26/Feeder_2/LinesUnq_pruned.txt
New Line.LINE172_27 Bus1=172_27 Bus2=172_28 phases=3 Linecode=3c_300_SAC_XC Length=0.01 Units=m
New Line.LINE172_28 Bus1=172_27 Bus2=172_29 phases=3 Linecode=3c_300_SAC_XC Length=0.01 Units=m
New Line.LINE172_29 Bus1=172_27 Bus2=172_30 phases=3 Linecode=25_SAC_XC Length=0.81449 Units=m
New Line.LINE172_42 Bus1=172_42 Bus2=172_43 phases=3 Linecode=4c_.25 Length=0.30327 Units=m
New Line.LINE172_43 Bus1=172_42 Bus2=172_44 phases=3 Linecode=4c_.25 Length=14.0534 Units=m
New Line.LINE172_44 Bus1=172_42 Bus2=172_45 phases=3 Linecode=4c_.25 Length=14.0534 Units=m
New Line.LINE172_47 Bus1=172_44 Bus2=172_48 phases=3 Linecode=4c_.25 Length=0.95625 Units=m
New Line.LINE172_49 Bus1=172_44 Bus2=172_50 phases=3 Linecode=4c_.25 Length=0.95625 Units=m
New Line.LINE172_52 Bus1=172_48 Bus2=172_53 phases=3 Linecode=4c_.25 Length=5.2931 Units=m
New Line.LINE172_53 Bus1=172_48 Bus2=172_54 phases=3 Linecode=2c_.04 Length=11.9875 Units=m
New Line.LINE172_54 Bus1=172_48 Bus2=172_55 phases=3 Linecode=4c_.25 Length=5.2931 Units=m
New Line.LINE172_57 Bus1=172_53 Bus2=172_58 phases=3 Linecode=4c_.25 Length=86.6798 Units=m
New Line.LINE172_58 Bus1=172_53 Bus2=172_59 phases=3 Linecode=4c_.25 Length=86.6798 Units=m
New Line.LINE172_59 Bus1=172_54 Bus2=172_60 phases=3 Linecode=2c_.04 Length=1.2237 Units=m
New Line.LINE172_61 Bus1=172_54 Bus2=172_62 phases=3 Linecode=2c_.04 Length=1.2237 Units=m
New Line.LINE172_64 Bus1=172_58 Bus2=172_65 phases=3 Linecode=4c_.25 Length=0.15473 Units=m
New Line.LINE172_65 Bus1=172_58 Bus2=172_66 phases=3 Linecode=4c_.25 Length=0.15473 Units=m
New Line.LINE172_66 Bus1=172_60 Bus2=172_67 phases=3 Linecode=2c_.04 Length=0.12857 Units=m
New Line.LINE172_67 Bus1=172_60 Bus2=172_68 phases=3 Linecode=2c_.04 Length=0.12857 Units=m
New Line.LINE172_70 Bus1=172_64 Bus2=172_71 phases=3 Linecode=4c_.25 Length=0.98304 Units=m
New Line.LINE172_71 Bus1=172_64 Bus2=172_72 phases=3 Linecode=4c_.25 Length=13.2992 Units=m
New Line.LINE172_72 Bus1=172_64 Bus2=172_73 phases=3 Linecode=4c_.25 Length=13.2992 Units=m
New Line.LINE172_73 Bus1=172_65 Bus2=172_74 phases=3 Linecode=4c_.25 Length=22.084 Units=m
New Line.LINE172_74 Bus1=172_65 Bus2=172_75 phases=3 Linecode=4c_.25 Length=22.084 Units=m
New Line.LINE172_75 Bus1=172_67 Bus2=172_76 phases=3 Linecode=2c_.04 Length=0.13909 Units=m
New Line.LINE172_76 Bus1=172_67 Bus2=172_77 phases=3 Linecode=2c_.04 Length=0.13909 Units=m
New Line.LINE172_79 Bus1=172_72 Bus2=172_80 phases=3 Linecode=4c_.25 Length=6.2952 Units=m
New Line.LINE172_80 Bus1=172_72 Bus2=172_81 phases=3 Linecode=4c_.25 Length=6.2952 Units=m
New Line.LINE172_81 Bus1=172_74 Bus2=172_82 phases=3 Linecode=4c_.25 Length=4.1914 Units=m
New Line.LINE172_82 Bus1=172_74 Bus2=172_83 phases=3 Linecode=4c_.25 Length=4.1914 Units=m
New Line.LINE172_83 Bus1=172_76 Bus2=172_84 phases=3 Linecode=2c_.04 Length=0.13634 Units=m
New Line.LINE172_84 Bus1=172_76 Bus2=172_85 phases=3 Linecode=2c_.04 Length=0.13634 Units=m
New Line.LINE172_87 Bus1=172_80 Bus2=172_88 phases=3 Linecode=4c_.25 Length=86.6336 Units=m
New Line.LINE172_88 Bus1=172_80 Bus2=172_89 phases=3 Linecode=4c_.25 Length=86.6336 Units=m
New Line.LINE172_89 Bus1=172_82 Bus2=172_90 phases=3 Linecode=4c_.25 Length=4.5933 Units=m
New Line.LINE172_90 Bus1=172_82 Bus2=172_91 phases=3 Linecode=4c_.25 Length=4.5933 Units=m
New Line.LINE172_91 Bus1=172_84 Bus2=172_92 phases=3 Linecode=2c_.04 Length=0.16293 Units=m
New Line.LINE172_92 Bus1=172_84 Bus2=172_93 phases=3 Linecode=2c_.04 Length=0.16293 Units=m
New Line.LINE172_95 Bus1=172_88 Bus2=172_96 phases=3 Linecode=4c_.25 Length=22.1317 Units=m
New Line.LINE172_96 Bus1=172_88 Bus2=172_97 phases=3 Linecode=4c_.25 Length=22.1317 Units=m
New Line.LINE172_97 Bus1=172_90 Bus2=172_98 phases=3 Linecode=4c_.25 Length=8.3605 Units=m
New Line.LINE172_98 Bus1=172_90 Bus2=172_99 phases=3 Linecode=4c_.25 Length=8.3605 Units=m
New Line.LINE172_99 Bus1=172_92 Bus2=172_100 phases=3 Linecode=2c_.04 Length=0.12603 Units=m
New Line.LINE172_100 Bus1=172_92 Bus2=172_101 phases=3 Linecode=2c_.04 Length=0.12603 Units=m
New Line.LINE172_103 Bus1=172_96 Bus2=172_104 phases=3 Linecode=4c_.25 Length=4.294 Units=m
New Line.LINE172_104 Bus1=172_96 Bus2=172_105 phases=3 Linecode=4c_.25 Length=4.294 Units=m
New Line.LINE172_105 Bus1=172_98 Bus2=172_106 phases=3 Linecode=4c_.25 Length=1.3061 Units=m
New Line.LINE172_106 Bus1=172_98 Bus2=172_107 phases=3 Linecode=4c_.25 Length=1.3061 Units=m
New Line.LINE172_107 Bus1=172_100 Bus2=172_108 phases=3 Linecode=2c_.04 Length=0.77189 Units=m
New Line.LINE172_108 Bus1=172_100 Bus2=172_109 phases=3 Linecode=2c_.04 Length=0.77189 Units=m
New Line.LINE172_109 Bus1=172_102 Bus2=172_110 phases=3 Linecode=2c_.04 Length=2.7893 Units=m
New Line.LINE172_112 Bus1=172_104 Bus2=172_113 phases=3 Linecode=4c_.25 Length=4.5968 Units=m
New Line.LINE172_113 Bus1=172_104 Bus2=172_114 phases=3 Linecode=4c_.25 Length=4.5968 Units=m
New Line.LINE172_114 Bus1=172_106 Bus2=172_115 phases=3 Linecode=4c_.25 Length=2.1271 Units=m
New Line.LINE172_115 Bus1=172_106 Bus2=172_116 phases=3 Linecode=4c_.25 Length=2.1271 Units=m
New Line.LINE172_117 Bus1=172_108 Bus2=172_118 phases=3 Linecode=2c_.04 Length=6.0342 Units=m
New Line.LINE172_120 Bus1=172_113 Bus2=172_121 phases=3 Linecode=4c_.25 Length=8.3582 Units=m
New Line.LINE172_121 Bus1=172_113 Bus2=172_122 phases=3 Linecode=4c_.25 Length=8.3582 Units=m
New Line.LINE172_122 Bus1=172_115 Bus2=172_123 phases=3 Linecode=4c_.25 Length=7.9132 Units=m
New Line.LINE172_123 Bus1=172_115 Bus2=172_124 phases=3 Linecode=4c_.25 Length=7.9132 Units=m
New Line.LINE172_126 Bus1=172_121 Bus2=172_127 phases=3 Linecode=4c_.25 Length=1.3105 Units=m
New Line.LINE172_127 Bus1=172_121 Bus2=172_128 phases=3 Linecode=4c_.25 Length=1.3105 Units=m
New Line.LINE172_128 Bus1=172_123 Bus2=172_129 phases=3 Linecode=4c_.25 Length=15.6083 Units=m
New Line.LINE172_129 Bus1=172_123 Bus2=172_130 phases=3 Linecode=4c_.25 Length=15.6083 Units=m
New Line.LINE172_132 Bus1=172_127 Bus2=172_133 phases=3 Linecode=4c_.25 Length=2.129 Units=m
New Line.LINE172_133 Bus1=172_127 Bus2=172_134 phases=3 Linecode=4c_.25 Length=2.129 Units=m
New Line.LINE172_134 Bus1=172_129 Bus2=172_135 phases=3 Linecode=4c_.25 Length=12.6322 Units=m
New Line.LINE172_135 Bus1=172_129 Bus2=172_136 phases=3 Linecode=4c_.25 Length=12.6322 Units=m
New Line.LINE172_138 Bus1=172_133 Bus2=172_139 phases=3 Linecode=4c_.25 Length=7.91 Units=m
New Line.LINE172_139 Bus1=172_133 Bus2=172_140 phases=3 Linecode=4c_.25 Length=7.91 Units=m
New Line.LINE172_140 Bus1=172_135 Bus2=172_141 phases=3 Linecode=4c_.25 Length=2.571 Units=m
New Line.LINE172_141 Bus1=172_135 Bus2=172_142 phases=3 Linecode=4c_.25 Length=2.571 Units=m
New Line.LINE172_144 Bus1=172_139 Bus2=172_145 phases=3 Linecode=4c_.25 Length=15.6074 Units=m
New Line.LINE172_145 Bus1=172_139 Bus2=172_146 phases=3 Linecode=4c_.25 Length=15.6074 Units=m
New Line.LINE172_146 Bus1=172_141 Bus2=172_147 phases=3 Linecode=4c_.25 Length=1.5786 Units=m
New Line.LINE172_147 Bus1=172_141 Bus2=172_148 phases=3 Linecode=4c_.25 Length=1.5786 Units=m
New Line.LINE172_150 Bus1=172_145 Bus2=172_151 phases=3 Linecode=4c_.25 Length=12.6309 Units=m
New Line.LINE172_151 Bus1=172_145 Bus2=172_152 phases=3 Linecode=4c_.25 Length=12.6309 Units=m
New Line.LINE172_152 Bus1=172_147 Bus2=172_153 phases=3 Linecode=4c_.25 Length=2.7963 Units=m
New Line.LINE172_153 Bus1=172_147 Bus2=172_154 phases=3 Linecode=4c_.25 Length=2.7963 Units=m
New Line.LINE172_156 Bus1=172_151 Bus2=172_157 phases=3 Linecode=4c_.25 Length=2.5701 Units=m
New Line.LINE172_157 Bus1=172_151 Bus2=172_158 phases=3 Linecode=4c_.25 Length=2.5701 Units=m
New Line.LINE172_158 Bus1=172_153 Bus2=172_159 phases=3 Linecode=4c_.25 Length=0.59778 Units=m
New Line.LINE172_159 Bus1=172_153 Bus2=172_160 phases=3 Linecode=4c_.25 Length=0.59778 Units=m
New Line.LINE172_162 Bus1=172_157 Bus2=172_163 phases=3 Linecode=4c_.25 Length=1.5763 Units=m
New Line.LINE172_163 Bus1=172_157 Bus2=172_164 phases=3 Linecode=4c_.25 Length=1.5763 Units=m
New Line.LINE172_164 Bus1=172_159 Bus2=172_165 phases=3 Linecode=4c_.25 Length=0.35208 Units=m
New Line.LINE172_165 Bus1=172_159 Bus2=172_166 phases=3 Linecode=4c_.25 Length=0.35208 Units=m
New Line.LINE172_168 Bus1=172_163 Bus2=172_169 phases=3 Linecode=4c_.25 Length=2.7963 Units=m
New Line.LINE172_169 Bus1=172_163 Bus2=172_170 phases=3 Linecode=4c_.25 Length=2.7963 Units=m
New Line.LINE172_170 Bus1=172_165 Bus2=172_171 phases=3 Linecode=4c_.25 Length=0.6771 Units=m
New Line.LINE172_171 Bus1=172_165 Bus2=172_172 phases=3 Linecode=4c_.25 Length=0.6771 Units=m
New Line.LINE172_174 Bus1=172_169 Bus2=172_175 phases=3 Linecode=4c_.25 Length=0.59685 Units=m
New Line.LINE172_175 Bus1=172_169 Bus2=172_176 phases=3 Linecode=4c_.25 Length=0.59685 Units=m
New Line.LINE172_176 Bus1=172_171 Bus2=172_177 phases=3 Linecode=4c_.25 Length=1.6108 Units=m
New Line.LINE172_177 Bus1=172_171 Bus2=172_178 phases=3 Linecode=4c_.25 Length=1.6108 Units=m
New Line.LINE172_180 Bus1=172_175 Bus2=172_181 phases=3 Linecode=4c_.25 Length=0.34447 Units=m
New Line.LINE172_181 Bus1=172_175 Bus2=172_182 phases=3 Linecode=4c_.25 Length=0.34447 Units=m
New Line.LINE172_182 Bus1=172_177 Bus2=172_183 phases=3 Linecode=4c_.25 Length=1.4091 Units=m
New Line.LINE172_183 Bus1=172_177 Bus2=172_184 phases=3 Linecode=4c_.25 Length=1.4091 Units=m
New Line.LINE172_185 Bus1=172_179 Bus2=172_186 phases=3 Linecode=2c_.04 Length=4.9741 Units=m
New Line.LINE172_187 Bus1=172_181 Bus2=172_188 phases=3 Linecode=4c_.25 Length=0.67797 Units=m
New Line.LINE172_188 Bus1=172_181 Bus2=172_189 phases=3 Linecode=4c_.25 Length=0.67797 Units=m
New Line.LINE172_189 Bus1=172_183 Bus2=172_190 phases=3 Linecode=4c_.25 Length=2.1248 Units=m
New Line.LINE172_190 Bus1=172_183 Bus2=172_191 phases=3 Linecode=4c_.25 Length=2.1248 Units=m
New Line.LINE172_192 Bus1=172_187 Bus2=172_193 phases=3 Linecode=2c_.04 Length=3.9626 Units=m
New Line.LINE172_194 Bus1=172_188 Bus2=172_195 phases=3 Linecode=4c_.25 Length=1.6184 Units=m
New Line.LINE172_195 Bus1=172_188 Bus2=172_196 phases=3 Linecode=4c_.25 Length=1.6184 Units=m
New Line.LINE172_196 Bus1=172_190 Bus2=172_197 phases=3 Linecode=4c_.25 Length=1.4991 Units=m
New Line.LINE172_197 Bus1=172_190 Bus2=172_198 phases=3 Linecode=4c_.25 Length=1.4991 Units=m
New Line.LINE172_200 Bus1=172_195 Bus2=172_201 phases=3 Linecode=4c_.25 Length=1.4132 Units=m
New Line.LINE172_201 Bus1=172_195 Bus2=172_202 phases=3 Linecode=4c_.25 Length=1.4132 Units=m
New Line.LINE172_202 Bus1=172_197 Bus2=172_203 phases=3 Linecode=4c_.25 Length=3.7238 Units=m
New Line.LINE172_203 Bus1=172_197 Bus2=172_204 phases=3 Linecode=4c_.25 Length=3.7238 Units=m
New Line.LINE172_206 Bus1=172_201 Bus2=172_207 phases=3 Linecode=4c_.25 Length=2.127 Units=m
New Line.LINE172_207 Bus1=172_201 Bus2=172_208 phases=3 Linecode=4c_.25 Length=2.127 Units=m
New Line.LINE172_208 Bus1=172_203 Bus2=172_209 phases=3 Linecode=4c_.25 Length=2.5999 Units=m
New Line.LINE172_209 Bus1=172_203 Bus2=172_210 phases=3 Linecode=4c_.25 Length=2.5999 Units=m
New Line.LINE172_212 Bus1=172_207 Bus2=172_213 phases=3 Linecode=4c_.25 Length=1.5004 Units=m
New Line.LINE172_213 Bus1=172_207 Bus2=172_214 phases=3 Linecode=4c_.25 Length=1.5004 Units=m
New Line.LINE172_214 Bus1=172_209 Bus2=172_215 phases=3 Linecode=4c_.25 Length=3.1626 Units=m
New Line.LINE172_215 Bus1=172_209 Bus2=172_216 phases=3 Linecode=4c_.25 Length=3.1626 Units=m
New Line.LINE172_218 Bus1=172_213 Bus2=172_219 phases=3 Linecode=4c_.25 Length=3.727 Units=m
New Line.LINE172_219 Bus1=172_213 Bus2=172_220 phases=3 Linecode=4c_.25 Length=3.727 Units=m
New Line.LINE172_220 Bus1=172_215 Bus2=172_221 phases=3 Linecode=4c_.25 Length=1.5186 Units=m
New Line.LINE172_221 Bus1=172_215 Bus2=172_222 phases=3 Linecode=4c_.25 Length=1.5186 Units=m
New Line.LINE172_224 Bus1=172_219 Bus2=172_225 phases=3 Linecode=4c_.25 Length=2.603 Units=m
New Line.LINE172_225 Bus1=172_219 Bus2=172_226 phases=3 Linecode=4c_.25 Length=2.603 Units=m
New Line.LINE172_226 Bus1=172_221 Bus2=172_227 phases=3 Linecode=4c_.25 Length=1.577 Units=m
New Line.LINE172_227 Bus1=172_221 Bus2=172_228 phases=3 Linecode=4c_.25 Length=1.577 Units=m
New Line.LINE172_230 Bus1=172_225 Bus2=172_231 phases=3 Linecode=4c_.25 Length=3.1677 Units=m
New Line.LINE172_231 Bus1=172_225 Bus2=172_232 phases=3 Linecode=4c_.25 Length=3.1677 Units=m
New Line.LINE172_232 Bus1=172_227 Bus2=172_233 phases=3 Linecode=4c_.25 Length=2.0776 Units=m
New Line.LINE172_233 Bus1=172_227 Bus2=172_234 phases=3 Linecode=4c_.25 Length=2.0776 Units=m
New Line.LINE172_236 Bus1=172_231 Bus2=172_237 phases=3 Linecode=4c_.25 Length=1.5196 Units=m
New Line.LINE172_237 Bus1=172_231 Bus2=172_238 phases=3 Linecode=4c_.25 Length=1.5196 Units=m
New Line.LINE172_238 Bus1=172_233 Bus2=172_239 phases=3 Linecode=4c_.25 Length=2.201 Units=m
New Line.LINE172_239 Bus1=172_233 Bus2=172_240 phases=3 Linecode=4c_.25 Length=2.201 Units=m
New Line.LINE172_242 Bus1=172_237 Bus2=172_243 phases=3 Linecode=4c_.25 Length=1.5874 Units=m
New Line.LINE172_243 Bus1=172_237 Bus2=172_244 phases=3 Linecode=4c_.25 Length=1.5874 Units=m
New Line.LINE172_244 Bus1=172_239 Bus2=172_245 phases=3 Linecode=4c_.25 Length=0.76829 Units=m
New Line.LINE172_245 Bus1=172_239 Bus2=172_246 phases=3 Linecode=4c_.25 Length=0.76829 Units=m
New Line.LINE172_248 Bus1=172_243 Bus2=172_249 phases=3 Linecode=4c_.25 Length=2.0936 Units=m
New Line.LINE172_249 Bus1=172_243 Bus2=172_250 phases=3 Linecode=4c_.25 Length=2.0936 Units=m
New Line.LINE172_250 Bus1=172_245 Bus2=172_251 phases=3 Linecode=4c_.25 Length=1.5074 Units=m
New Line.LINE172_251 Bus1=172_245 Bus2=172_252 phases=3 Linecode=4c_.25 Length=1.5074 Units=m
New Line.LINE172_254 Bus1=172_249 Bus2=172_255 phases=3 Linecode=4c_.25 Length=2.208 Units=m
New Line.LINE172_255 Bus1=172_249 Bus2=172_256 phases=3 Linecode=4c_.25 Length=2.208 Units=m
New Line.LINE172_256 Bus1=172_251 Bus2=172_257 phases=3 Linecode=4c_.25 Length=1.3261 Units=m
New Line.LINE172_257 Bus1=172_251 Bus2=172_258 phases=3 Linecode=4c_.25 Length=1.3261 Units=m
New Line.LINE172_259 Bus1=172_255 Bus2=172_260 phases=3 Linecode=4c_.25 Length=0.77828 Units=m
New Line.LINE172_260 Bus1=172_255 Bus2=172_261 phases=3 Linecode=4c_.25 Length=0.77828 Units=m
New Line.LINE172_261 Bus1=172_257 Bus2=172_262 phases=3 Linecode=4c_.25 Length=1.2208 Units=m
New Line.LINE172_262 Bus1=172_257 Bus2=172_263 phases=3 Linecode=4c_.25 Length=1.2208 Units=m
New Line.LINE172_263 Bus1=172_260 Bus2=172_264 phases=3 Linecode=4c_.25 Length=1.5208 Units=m
New Line.LINE172_264 Bus1=172_260 Bus2=172_265 phases=3 Linecode=4c_.25 Length=1.5208 Units=m
New Line.LINE172_265 Bus1=172_262 Bus2=172_266 phases=3 Linecode=4c_.25 Length=1.1836 Units=m
New Line.LINE172_266 Bus1=172_262 Bus2=172_267 phases=3 Linecode=4c_.25 Length=1.1836 Units=m
New Line.LINE172_267 Bus1=172_264 Bus2=172_268 phases=3 Linecode=4c_.25 Length=1.3363 Units=m
New Line.LINE172_268 Bus1=172_264 Bus2=172_269 phases=3 Linecode=4c_.25 Length=1.3363 Units=m
New Line.LINE172_269 Bus1=172_266 Bus2=172_270 phases=3 Linecode=4c_.25 Length=0.88278 Units=m
New Line.LINE172_270 Bus1=172_266 Bus2=172_271 phases=3 Linecode=4c_.25 Length=0.88278 Units=m
New Line.LINE172_271 Bus1=172_268 Bus2=172_272 phases=3 Linecode=4c_.25 Length=1.2316 Units=m
New Line.LINE172_272 Bus1=172_268 Bus2=172_273 phases=3 Linecode=4c_.25 Length=1.2316 Units=m
New Line.LINE172_273 Bus1=172_270 Bus2=172_274 phases=3 Linecode=4c_.25 Length=0.80073 Units=m
New Line.LINE172_274 Bus1=172_270 Bus2=172_275 phases=3 Linecode=4c_.25 Length=0.80073 Units=m
New Line.LINE172_275 Bus1=172_272 Bus2=172_276 phases=3 Linecode=4c_.25 Length=1.1868 Units=m
New Line.LINE172_276 Bus1=172_272 Bus2=172_277 phases=3 Linecode=4c_.25 Length=1.1868 Units=m
New Line.LINE172_277 Bus1=172_274 Bus2=172_278 phases=3 Linecode=4c_.25 Length=0.75108 Units=m
New Line.LINE172_278 Bus1=172_274 Bus2=172_279 phases=3 Linecode=4c_.25 Length=0.75108 Units=m
New Line.LINE172_279 Bus1=172_276 Bus2=172_280 phases=3 Linecode=4c_.25 Length=0.88909 Units=m
New Line.LINE172_280 Bus1=172_276 Bus2=172_281 phases=3 Linecode=4c_.25 Length=0.88909 Units=m
New Line.LINE172_281 Bus1=172_278 Bus2=172_282 phases=3 Linecode=4c_.25 Length=0.73329 Units=m
New Line.LINE172_282 Bus1=172_278 Bus2=172_283 phases=3 Linecode=4c_.25 Length=0.73329 Units=m
New Line.LINE172_283 Bus1=172_280 Bus2=172_284 phases=3 Linecode=4c_.25 Length=0.80704 Units=m
New Line.LINE172_284 Bus1=172_280 Bus2=172_285 phases=3 Linecode=4c_.25 Length=0.80704 Units=m
New Line.LINE172_285 Bus1=172_282 Bus2=172_286 phases=3 Linecode=4c_.25 Length=1.8285 Units=m
New Line.LINE172_286 Bus1=172_282 Bus2=172_287 phases=3 Linecode=4c_.25 Length=1.8285 Units=m
New Line.LINE172_287 Bus1=172_284 Bus2=172_288 phases=3 Linecode=4c_.25 Length=0.75773 Units=m
New Line.LINE172_288 Bus1=172_284 Bus2=172_289 phases=3 Linecode=4c_.25 Length=0.75773 Units=m
New Line.LINE172_289 Bus1=172_286 Bus2=172_290 phases=3 Linecode=4c_.25 Length=1.0957 Units=m
New Line.LINE172_290 Bus1=172_286 Bus2=172_291 phases=3 Linecode=4c_.25 Length=1.0957 Units=m
New Line.LINE172_291 Bus1=172_288 Bus2=172_292 phases=3 Linecode=4c_.25 Length=0.73553 Units=m
New Line.LINE172_292 Bus1=172_288 Bus2=172_293 phases=3 Linecode=4c_.25 Length=0.73553 Units=m
New Line.LINE172_293 Bus1=172_290 Bus2=172_294 phases=3 Linecode=4c_.25 Length=1.8861 Units=m
New Line.LINE172_294 Bus1=172_290 Bus2=172_295 phases=3 Linecode=4c_.25 Length=1.8861 Units=m
New Line.LINE172_295 Bus1=172_292 Bus2=172_296 phases=3 Linecode=4c_.25 Length=1.8429 Units=m
New Line.LINE172_296 Bus1=172_292 Bus2=172_297 phases=3 Linecode=4c_.25 Length=1.8429 Units=m
New Line.LINE172_297 Bus1=172_294 Bus2=172_298 phases=3 Linecode=4c_.25 Length=1.3125 Units=m
New Line.LINE172_298 Bus1=172_294 Bus2=172_299 phases=3 Linecode=4c_.25 Length=1.3125 Units=m
New Line.LINE172_299 Bus1=172_296 Bus2=172_300 phases=3 Linecode=4c_.25 Length=1.1041 Units=m
New Line.LINE172_300 Bus1=172_296 Bus2=172_301 phases=3 Linecode=4c_.25 Length=1.1041 Units=m
New Line.LINE172_301 Bus1=172_298 Bus2=172_302 phases=3 Linecode=4c_.25 Length=0.96258 Units=m
New Line.LINE172_302 Bus1=172_298 Bus2=172_303 phases=3 Linecode=4c_.25 Length=0.96258 Units=m
New Line.LINE172_303 Bus1=172_300 Bus2=172_304 phases=3 Linecode=4c_.25 Length=1.8918 Units=m
New Line.LINE172_304 Bus1=172_300 Bus2=172_305 phases=3 Linecode=4c_.25 Length=1.8918 Units=m
New Line.LINE172_305 Bus1=172_302 Bus2=172_306 phases=3 Linecode=4c_.25 Length=1.2478 Units=m
New Line.LINE172_306 Bus1=172_302 Bus2=172_307 phases=3 Linecode=4c_.25 Length=1.2478 Units=m
New Line.LINE172_307 Bus1=172_304 Bus2=172_308 phases=3 Linecode=4c_.25 Length=1.3196 Units=m
New Line.LINE172_308 Bus1=172_304 Bus2=172_309 phases=3 Linecode=4c_.25 Length=1.3196 Units=m
New Line.LINE172_309 Bus1=172_306 Bus2=172_310 phases=3 Linecode=4c_.25 Length=0.30361 Units=m
New Line.LINE172_310 Bus1=172_306 Bus2=172_311 phases=3 Linecode=4c_.25 Length=0.30361 Units=m
New Line.LINE172_311 Bus1=172_308 Bus2=172_312 phases=3 Linecode=4c_.25 Length=0.96476 Units=m
New Line.LINE172_312 Bus1=172_308 Bus2=172_313 phases=3 Linecode=4c_.25 Length=0.96476 Units=m
New Line.LINE172_313 Bus1=172_310 Bus2=172_314 phases=3 Linecode=4c_.25 Length=0.32822 Units=m
New Line.LINE172_314 Bus1=172_310 Bus2=172_315 phases=3 Linecode=4c_.25 Length=0.32822 Units=m
New Line.LINE172_315 Bus1=172_312 Bus2=172_316 phases=3 Linecode=4c_.25 Length=1.2528 Units=m
New Line.LINE172_316 Bus1=172_312 Bus2=172_317 phases=3 Linecode=4c_.25 Length=1.2528 Units=m
New Line.LINE172_317 Bus1=172_314 Bus2=172_318 phases=3 Linecode=4c_.25 Length=0.30547 Units=m
New Line.LINE172_318 Bus1=172_314 Bus2=172_319 phases=3 Linecode=4c_.25 Length=0.30547 Units=m
New Line.LINE172_319 Bus1=172_316 Bus2=172_320 phases=3 Linecode=4c_.25 Length=0.30585 Units=m
New Line.LINE172_320 Bus1=172_316 Bus2=172_321 phases=3 Linecode=4c_.25 Length=0.30585 Units=m
New Line.LINE172_321 Bus1=172_318 Bus2=172_322 phases=3 Linecode=4c_.25 Length=0.59925 Units=m
New Line.LINE172_322 Bus1=172_318 Bus2=172_323 phases=3 Linecode=4c_.25 Length=0.59925 Units=m
New Line.LINE172_323 Bus1=172_320 Bus2=172_324 phases=3 Linecode=4c_.25 Length=0.31832 Units=m
New Line.LINE172_324 Bus1=172_320 Bus2=172_325 phases=3 Linecode=4c_.25 Length=0.31832 Units=m
New Line.LINE172_325 Bus1=172_322 Bus2=172_326 phases=3 Linecode=4c_.25 Length=0.45707 Units=m
New Line.LINE172_326 Bus1=172_322 Bus2=172_327 phases=3 Linecode=4c_.25 Length=0.45707 Units=m
New Line.LINE172_327 Bus1=172_324 Bus2=172_328 phases=3 Linecode=4c_.25 Length=0.44688 Units=m
New Line.LINE172_328 Bus1=172_324 Bus2=172_329 phases=3 Linecode=4c_.25 Length=0.44688 Units=m
New Line.LINE172_329 Bus1=172_326 Bus2=172_330 phases=3 Linecode=4c_.25 Length=0.16674 Units=m
New Line.LINE172_330 Bus1=172_326 Bus2=172_331 phases=3 Linecode=4c_.25 Length=0.16674 Units=m
New Line.LINE172_331 Bus1=172_328 Bus2=172_332 phases=3 Linecode=4c_.25 Length=0.78427 Units=m
New Line.LINE172_332 Bus1=172_328 Bus2=172_333 phases=3 Linecode=4c_.25 Length=0.78427 Units=m
New Line.LINE172_333 Bus1=172_330 Bus2=172_334 phases=3 Linecode=4c_.25 Length=0.2948 Units=m
New Line.LINE172_334 Bus1=172_330 Bus2=172_335 phases=3 Linecode=4c_.25 Length=0.2948 Units=m
New Line.LINE172_335 Bus1=172_332 Bus2=172_336 phases=3 Linecode=4c_.25 Length=0.34842 Units=m
New Line.LINE172_336 Bus1=172_332 Bus2=172_337 phases=3 Linecode=4c_.25 Length=0.34842 Units=m
New Line.LINE172_337 Bus1=172_334 Bus2=172_338 phases=3 Linecode=4c_.25 Length=0.44123 Units=m
New Line.LINE172_338 Bus1=172_334 Bus2=172_339 phases=3 Linecode=4c_.25 Length=0.44123 Units=m
New Line.LINE172_339 Bus1=172_336 Bus2=172_340 phases=3 Linecode=4c_.25 Length=0.28416 Units=m
New Line.LINE172_340 Bus1=172_336 Bus2=172_341 phases=3 Linecode=4c_.25 Length=0.28416 Units=m
New Line.LINE172_341 Bus1=172_338 Bus2=172_342 phases=3 Linecode=4c_.25 Length=0.28654 Units=m
New Line.LINE172_342 Bus1=172_338 Bus2=172_343 phases=3 Linecode=4c_.25 Length=0.28654 Units=m
New Line.LINE172_343 Bus1=172_340 Bus2=172_344 phases=3 Linecode=4c_.25 Length=0.16086 Units=m
New Line.LINE172_344 Bus1=172_340 Bus2=172_345 phases=3 Linecode=4c_.25 Length=0.16086 Units=m
New Line.LINE172_345 Bus1=172_342 Bus2=172_346 phases=3 Linecode=4c_.25 Length=0.23603 Units=m
New Line.LINE172_346 Bus1=172_342 Bus2=172_347 phases=3 Linecode=4c_.25 Length=0.23603 Units=m
New Line.LINE172_347 Bus1=172_344 Bus2=172_348 phases=3 Linecode=4c_.25 Length=0.17696 Units=m
New Line.LINE172_348 Bus1=172_344 Bus2=172_349 phases=3 Linecode=4c_.25 Length=0.17696 Units=m
New Line.LINE172_349 Bus1=172_346 Bus2=172_350 phases=3 Linecode=4c_.25 Length=0.53199 Units=m
New Line.LINE172_350 Bus1=172_346 Bus2=172_351 phases=3 Linecode=4c_.25 Length=0.53199 Units=m
New Line.LINE172_351 Bus1=172_348 Bus2=172_352 phases=3 Linecode=4c_.25 Length=0.40203 Units=m
New Line.LINE172_352 Bus1=172_348 Bus2=172_353 phases=3 Linecode=4c_.25 Length=0.40203 Units=m
New Line.LINE172_353 Bus1=172_350 Bus2=172_354 phases=3 Linecode=4c_.25 Length=0.32909 Units=m
New Line.LINE172_354 Bus1=172_350 Bus2=172_355 phases=3 Linecode=4c_.25 Length=0.32909 Units=m
New Line.LINE172_355 Bus1=172_352 Bus2=172_356 phases=3 Linecode=4c_.25 Length=0.50592 Units=m
New Line.LINE172_356 Bus1=172_352 Bus2=172_357 phases=3 Linecode=4c_.25 Length=0.50592 Units=m
New Line.LINE172_357 Bus1=172_354 Bus2=172_358 phases=3 Linecode=4c_.25 Length=0.48058 Units=m
New Line.LINE172_358 Bus1=172_354 Bus2=172_359 phases=3 Linecode=4c_.25 Length=0.48058 Units=m
New Line.LINE172_359 Bus1=172_356 Bus2=172_360 phases=3 Linecode=4c_.25 Length=0.29536 Units=m
New Line.LINE172_360 Bus1=172_356 Bus2=172_361 phases=3 Linecode=4c_.25 Length=0.29536 Units=m
New Line.LINE172_361 Bus1=172_358 Bus2=172_362 phases=3 Linecode=4c_.25 Length=0.14262 Units=m
New Line.LINE172_362 Bus1=172_358 Bus2=172_363 phases=3 Linecode=4c_.25 Length=0.14262 Units=m
New Line.LINE172_363 Bus1=172_360 Bus2=172_364 phases=3 Linecode=4c_.25 Length=0.04588 Units=m
New Line.LINE172_364 Bus1=172_360 Bus2=172_365 phases=3 Linecode=4c_.25 Length=0.04588 Units=m
New Line.LINE172_365 Bus1=172_362 Bus2=172_366 phases=3 Linecode=4c_.25 Length=0.3953 Units=m
New Line.LINE172_366 Bus1=172_362 Bus2=172_367 phases=3 Linecode=4c_.25 Length=0.3953 Units=m
New Line.LINE172_368 Bus1=172_364 Bus2=172_369 phases=3 Linecode=4c_.25 Length=0.2335 Units=m
New Line.LINE172_369 Bus1=172_366 Bus2=172_370 phases=3 Linecode=4c_.25 Length=0.61288 Units=m
New Line.LINE172_370 Bus1=172_366 Bus2=172_371 phases=3 Linecode=4c_.25 Length=0.61288 Units=m
New Line.LINE172_372 Bus1=172_370 Bus2=172_373 phases=3 Linecode=4c_.25 Length=21.8062 Units=m
New Line.LINE172_373 Bus1=172_370 Bus2=172_374 phases=3 Linecode=4c_.25 Length=21.8062 Units=m
New Line.LINE172_375 Bus1=172_373 Bus2=172_376 phases=3 Linecode=4c_.25 Length=0.44554 Units=m
New Line.LINE172_376 Bus1=172_373 Bus2=172_377 phases=3 Linecode=4c_.25 Length=0.44554 Units=m
New Line.LINE172_378 Bus1=172_376 Bus2=172_379 phases=3 Linecode=4c_.25 Length=0.42593 Units=m
New Line.LINE172_379 Bus1=172_376 Bus2=172_380 phases=3 Linecode=4c_.25 Length=0.42593 Units=m
New Line.LINE172_381 Bus1=172_379 Bus2=172_382 phases=3 Linecode=4c_.25 Length=0.28014 Units=m
New Line.LINE172_382 Bus1=172_379 Bus2=172_383 phases=3 Linecode=4c_.25 Length=0.28014 Units=m
New Line.LINE172_385 Bus1=172_382 Bus2=172_386 phases=3 Linecode=4c_.25 Length=0.3086 Units=m
New Line.LINE172_411 Bus1=172_408 Bus2=172_412 phases=3 Linecode=4c_.25 Length=5.7857 Units=m
New Line.LINE172_Cmpd_0 Bus1=172_1 Bus2=172_27 phases=3 Linecode=3c_300_SAC_XC Length=39.837898 Units=m
New Line.LINE172_Cmpd_1 Bus1=172_399 Bus2=172_538 phases=3 Linecode=4_XSC Length=12.566562 Units=m
New Line.LINE172_Cmpd_2 Bus1=172_187 Bus2=172_254 phases=3 Linecode=2c_.04 Length=16.323191 Units=m
New Line.LINE172_Cmpd_3 Bus1=172_364 Bus2=172_391 phases=3 Linecode=4c_.25 Length=24.723115 Units=m
New Line.LINE172_Cmpd_4 Bus1=172_408 Bus2=172_425 phases=3 Linecode=35_SAC_PC Length=2.15826 Units=m
New Line.LINE172_Cmpd_5 Bus1=172_102 Bus2=172_187 phases=3 Linecode=2c_.04 Length=8.471274 Units=m
New Line.LINE172_Cmpd_6 Bus1=172_30 Bus2=172_42 phases=3 Linecode=3c_300_SAC_XC Length=3.235338 Units=m
New Line.LINE172_Cmpd_7 Bus1=172_431 Bus2=172_514 phases=3 Linecode=4_PSC Length=4.881238 Units=m
New Line.LINE172_Cmpd_8 Bus1=172_390 Bus2=172_504 phases=3 Linecode=3c_95_ASN Length=147.396561 Units=m
New Line.LINE172_Cmpd_9 Bus1=172_179 Bus2=172_259 phases=3 Linecode=2c_.04 Length=13.891884 Units=m
New Line.LINE172_Cmpd_10 Bus1=172_431 Bus2=172_451 phases=3 Linecode=4c_.25 Length=11.75968 Units=m
New Line.LINE172_Cmpd_11 Bus1=172_54 Bus2=172_102 phases=3 Linecode=2c_.04 Length=5.75649 Units=m
New Line.LINE172_Cmpd_12 Bus1=172_44 Bus2=172_120 phases=3 Linecode=4c_.25 Length=2.52929 Units=m
New Line.LINE172_Cmpd_13 Bus1=172_108 Bus2=172_179 phases=3 Linecode=2c_.04 Length=7.70214 Units=m
New Line.LINE172_Cmpd_14 Bus1=172_412 Bus2=172_460 phases=3 Linecode=35_SAC_XC Length=3.591222 Units=m
New Line.LINE172_Cmpd_15 Bus1=172_390 Bus2=172_399 phases=3 Linecode=4c_.25 Length=4.40643 Units=m
New Line.LINE172_Cmpd_16 Bus1=172_451 Bus2=172_503 phases=3 Linecode=4c_.25 Length=1.797299 Units=m
New Line.LINE172_Cmpd_17 Bus1=172_399 Bus2=172_408 phases=3 Linecode=4c_.25 Length=27.0128 Units=m
New Line.LINE172_Cmpd_18 Bus1=172_43 Bus2=172_64 phases=3 Linecode=3c_300_SAC_XC Length=1.09199 Units=m
New Line.LINE172_Cmpd_19 Bus1=172_412 Bus2=172_431 phases=3 Linecode=4c_.25 Length=31.3848 Units=m
New Line.LINE172_Cmpd_20 Bus1=172_451 Bus2=172_463 phases=3 Linecode=4c_.25 Length=6.8342 Units=m
New Line.LINE172_Cmpd_21 Bus1=172_382 Bus2=172_390 phases=3 Linecode=4c_.25 Length=1.00732 Units=m
New Line.LINE172_Cmpd_22 Bus1=172_43 Bus2=172_51 phases=3 Linecode=4c_.25 Length=0.79169 Units=m
