Test_Network/network_26/Feeder_3/LinesUnq_pruned.txt
New Line.LINE173_29 Bus1=173_29 Bus2=173_30 phases=3 Linecode=4c_.25 Length=0.62935 Units=m
New Line.LINE173_30 Bus1=173_29 Bus2=173_31 phases=3 Linecode=4c_.25 Length=0.62935 Units=m
New Line.LINE173_31 Bus1=173_30 Bus2=173_32 phases=3 Linecode=4c_.25 Length=13.6295 Units=m
New Line.LINE173_32 Bus1=173_30 Bus2=173_33 phases=3 Linecode=4c_.25 Length=13.6295 Units=m
New Line.LINE173_33 Bus1=173_32 Bus2=173_34 phases=3 Linecode=4c_.25 Length=6.2054 Units=m
New Line.LINE173_34 Bus1=173_32 Bus2=173_35 phases=3 Linecode=4c_.25 Length=6.2054 Units=m
New Line.LINE173_35 Bus1=173_34 Bus2=173_36 phases=3 Linecode=4c_.25 Length=24.2542 Units=m
New Line.LINE173_36 Bus1=173_34 Bus2=173_37 phases=3 Linecode=4c_.25 Length=24.2542 Units=m
New Line.LINE173_38 Bus1=173_36 Bus2=173_39 phases=3 Linecode=4c_.25 Length=3.8026 Units=m
New Line.LINE173_42 Bus1=173_41 Bus2=173_43 phases=3 Linecode=4_XSC Length=0.99378 Units=m
New Line.LINE173_44 Bus1=173_41 Bus2=173_45 phases=3 Linecode=4c_.25 Length=1.2786 Units=m
New Line.LINE173_47 Bus1=173_45 Bus2=173_48 phases=3 Linecode=4c_.25 Length=10.9007 Units=m
New Line.LINE173_51 Bus1=173_48 Bus2=173_52 phases=3 Linecode=4c_.25 Length=22.3647 Units=m
New Line.LINE173_57 Bus1=173_52 Bus2=173_58 phases=3 Linecode=2c_.04 Length=6.0684 Units=m
New Line.LINE173_75 Bus1=173_68 Bus2=173_76 phases=3 Linecode=2c_.04 Length=5.4045 Units=m
New Line.LINE173_102 Bus1=173_95 Bus2=173_103 phases=3 Linecode=2c_.04 Length=5.4849 Units=m
New Line.LINE173_110 Bus1=173_101 Bus2=173_111 phases=3 Linecode=2c_.04 Length=5.5758 Units=m
New Line.LINE173_147 Bus1=173_138 Bus2=173_148 phases=3 Linecode=4c_.25 Length=0.16996 Units=m
New Line.LINE173_162 Bus1=173_151 Bus2=173_163 phases=3 Linecode=2c_.04 Length=5.4563 Units=m
New Line.LINE173_179 Bus1=173_170 Bus2=173_180 phases=3 Linecode=4c_.25 Length=1.0729 Units=m
New Line.LINE173_199 Bus1=173_192 Bus2=173_200 phases=3 Linecode=2c_.04 Length=4.7969 Units=m
New Line.LINE173_206 Bus1=173_198 Bus2=173_207 phases=3 Linecode=2c_.04 Length=5.2358 Units=m
New Line.LINE173_257 Bus1=173_252 Bus2=173_258 phases=3 Linecode=2c_.04 Length=6.7145 Units=m
New Line.LINE173_278 Bus1=173_276 Bus2=173_279 phases=3 Linecode=4c_.25 Length=1.1107 Units=m
New Line.LINE173_291 Bus1=173_288 Bus2=173_292 phases=3 Linecode=2c_.04 Length=5.912 Units=m
New Line.LINE173_296 Bus1=173_292 Bus2=173_297 phases=3 Linecode=2c_.04 Length=4.5102 Units=m
New Line.LINE173_307 Bus1=173_302 Bus2=173_308 phases=3 Linecode=2c_.04 Length=5.127 Units=m
New Line.LINE173_308 Bus1=173_302 Bus2=173_309 phases=3 Linecode=2c_.04 Length=5.127 Units=m
New Line.LINE173_320 Bus1=173_316 Bus2=173_321 phases=3 Linecode=2c_.04 Length=5.9846 Units=m
New Line.LINE173_326 Bus1=173_321 Bus2=173_327 phases=3 Linecode=2c_.04 Length=4.7102 Units=m
New Line.LINE173_344 Bus1=173_339 Bus2=173_345 phases=3 Linecode=2c_.04 Length=4.4045 Units=m
New Line.LINE173_345 Bus1=173_339 Bus2=173_346 phases=3 Linecode=2c_.04 Length=5.6668 Units=m
New Line.LINE173_346 Bus1=173_339 Bus2=173_347 phases=3 Linecode=2c_.04 Length=5.6668 Units=m
New Line.LINE173_351 Bus1=173_345 Bus2=173_352 phases=3 Linecode=2c_.04 Length=3.3834 Units=m
New Line.LINE173_352 Bus1=173_345 Bus2=173_353 phases=3 Linecode=2c_.04 Length=3.3834 Units=m
New Line.LINE173_362 Bus1=173_359 Bus2=173_363 phases=3 Linecode=2c_.04 Length=4.8938 Units=m
New Line.LINE173_363 Bus1=173_359 Bus2=173_364 phases=3 Linecode=2c_.04 Length=4.8938 Units=m
New Line.LINE173_429 Bus1=173_424 Bus2=173_430 phases=3 Linecode=4c_.25 Length=1.9019 Units=m
New Line.LINE173_456 Bus1=173_450 Bus2=173_457 phases=3 Linecode=2c_.04 Length=14.192 Units=m
New Line.LINE173_467 Bus1=173_460 Bus2=173_468 phases=3 Linecode=3c_.04 Length=3.4977 Units=m
New Line.LINE173_474 Bus1=173_466 Bus2=173_475 phases=3 Linecode=3c_.04 Length=4.3701 Units=m
New Line.LINE173_477 Bus1=173_470 Bus2=173_478 phases=3 Linecode=4c_.25 Length=5.3043 Units=m
New Line.LINE173_510 Bus1=173_503 Bus2=173_511 phases=3 Linecode=2c_.04 Length=4.2771 Units=m
New Line.LINE173_519 Bus1=173_512 Bus2=173_520 phases=3 Linecode=2c_.04 Length=3.4915 Units=m
New Line.LINE173_542 Bus1=173_536 Bus2=173_543 phases=3 Linecode=2c_.04 Length=4.1848 Units=m
New Line.LINE173_543 Bus1=173_536 Bus2=173_544 phases=3 Linecode=2c_.04 Length=4.1848 Units=m
New Line.LINE173_556 Bus1=173_551 Bus2=173_557 phases=3 Linecode=4c_.06 Length=4.2076 Units=m
New Line.LINE173_564 Bus1=173_557 Bus2=173_565 phases=3 Linecode=4c_.04 Length=5.6087 Units=m
New Line.LINE173_570 Bus1=173_563 Bus2=173_571 phases=3 Linecode=2c_.04 Length=4.1319 Units=m
New Line.LINE173_571 Bus1=173_563 Bus2=173_572 phases=3 Linecode=2c_.04 Length=4.1319 Units=m
New Line.LINE173_606 Bus1=173_596 Bus2=173_607 phases=3 Linecode=2c_.04 Length=4.5293 Units=m
New Line.LINE173_613 Bus1=173_602 Bus2=173_614 phases=3 Linecode=2c_.04 Length=4.9296 Units=m
New Line.LINE173_625 Bus1=173_615 Bus2=173_626 phases=3 Linecode=2c_.04 Length=4.6955 Units=m
New Line.LINE173_637 Bus1=173_627 Bus2=173_638 phases=3 Linecode=2c_.04 Length=5.7705 Units=m
New Line.LINE173_642 Bus1=173_632 Bus2=173_643 phases=3 Linecode=2c_.04 Length=4.4508 Units=m
New Line.LINE173_643 Bus1=173_632 Bus2=173_644 phases=3 Linecode=2c_.04 Length=4.4508 Units=m
New Line.LINE173_650 Bus1=173_639 Bus2=173_651 phases=3 Linecode=2c_.04 Length=4.8816 Units=m
New Line.LINE173_654 Bus1=173_642 Bus2=173_655 phases=3 Linecode=2c_.04 Length=2.6915 Units=m
New Line.LINE173_655 Bus1=173_642 Bus2=173_656 phases=3 Linecode=2c_.04 Length=2.6915 Units=m
New Line.LINE173_755 Bus1=173_748 Bus2=173_756 phases=3 Linecode=25_SAC_PC Length=3.366 Units=m
New Line.LINE173_791 Bus1=173_784 Bus2=173_792 phases=3 Linecode=2c_.04 Length=4.3451 Units=m
New Line.LINE173_802 Bus1=173_797 Bus2=173_803 phases=3 Linecode=4c_.04 Length=14.7304 Units=m
New Line.LINE173_849 Bus1=173_841 Bus2=173_850 phases=3 Linecode=2c_.04 Length=4.5531 Units=m
New Line.LINE173_857 Bus1=173_848 Bus2=173_858 phases=3 Linecode=2c_.04 Length=3.7162 Units=m
New Line.LINE173_880 Bus1=173_873 Bus2=173_881 phases=3 Linecode=4c_.04 Length=9.6412 Units=m
New Line.LINE173_922 Bus1=173_914 Bus2=173_923 phases=3 Linecode=2c_.04 Length=5.1685 Units=m
New Line.LINE173_924 Bus1=173_915 Bus2=173_925 phases=3 Linecode=2c_.04 Length=5.428 Units=m
New Line.LINE173_937 Bus1=173_930 Bus2=173_938 phases=3 Linecode=.04 Length=9.2308 Units=m
New Line.LINE173_983 Bus1=173_976 Bus2=173_984 phases=3 Linecode=2c_.04 Length=4.3464 Units=m
New Line.LINE173_985 Bus1=173_977 Bus2=173_986 phases=3 Linecode=2c_.04 Length=6.8615 Units=m
New Line.LINE173_1026 Bus1=173_1021 Bus2=173_1027 phases=3 Linecode=2c_.04 Length=2.4303 Units=m
New Line.LINE173_1036 Bus1=173_1031 Bus2=173_1037 phases=3 Linecode=2c_.04 Length=5.6378 Units=m
New Line.LINE173_1061 Bus1=173_1057 Bus2=173_1062 phases=3 Linecode=2c_.04 Length=5.9029 Units=m
New Line.LINE173_1063 Bus1=173_1058 Bus2=173_1064 phases=3 Linecode=2c_.04 Length=5.3273 Units=m
New Line.LINE173_1070 Bus1=173_1066 Bus2=173_1071 phases=3 Linecode=2c_.04 Length=5.1844 Units=m
New Line.LINE173_1082 Bus1=173_1078 Bus2=173_1083 phases=3 Linecode=2c_.04 Length=5.6241 Units=m
New Line.LINE173_1098 Bus1=173_1094 Bus2=173_1099 phases=3 Linecode=2c_.04 Length=4.4391 Units=m
New Line.LINE173_1102 Bus1=173_1097 Bus2=173_1103 phases=3 Linecode=2c_.04 Length=5.9218 Units=m
New Line.LINE173_Cmpd_0 Bus1=173_170 Bus2=173_276 phases=3 Linecode=4c_.25 Length=16.09089 Units=m
New Line.LINE173_Cmpd_1 Bus1=173_615 Bus2=173_744 phases=3 Linecode=2c_.04 Length=11.85381 Units=m
New Line.LINE173_Cmpd_2 Bus1=173_276 Bus2=173_315 phases=3 Linecode=4c_.25 Length=5.468651 Units=m
New Line.LINE173_Cmpd_3 Bus1=173_300 Bus2=173_339 phases=3 Linecode=2c_.04 Length=11.46834 Units=m
New Line.LINE173_Cmpd_4 Bus1=173_591 Bus2=173_646 phases=3 Linecode=4c_.06 Length=26.34328 Units=m
New Line.LINE173_Cmpd_5 Bus1=173_1066 Bus2=173_1122 phases=3 Linecode=2c_.04 Length=12.52257 Units=m
New Line.LINE173_Cmpd_6 Bus1=173_841 Bus2=173_936 phases=3 Linecode=2c_.04 Length=12.81857 Units=m
New Line.LINE173_Cmpd_7 Bus1=173_288 Bus2=173_300 phases=3 Linecode=4c_.25 Length=22.6832 Units=m
New Line.LINE173_Cmpd_8 Bus1=173_45 Bus2=173_252 phases=3 Linecode=2c_.04 Length=14.314232 Units=m
New Line.LINE173_Cmpd_9 Bus1=173_1058 Bus2=173_1094 phases=3 Linecode=2c_.04 Length=7.41228 Units=m
New Line.LINE173_Cmpd_10 Bus1=173_478 Bus2=173_596 phases=3 Linecode=2c_.04 Length=17.274963 Units=m
New Line.LINE173_Cmpd_11 Bus1=173_646 Bus2=173_729 phases=3 Linecode=4c_.06 Length=13.01791 Units=m
New Line.LINE173_Cmpd_12 Bus1=173_709 Bus2=173_817 phases=3 Linecode=4_XSC Length=3.19271 Units=m
New Line.LINE173_Cmpd_13 Bus1=173_470 Bus2=173_726 phases=3 Linecode=2c_.007 Length=3.358172 Units=m
New Line.LINE173_Cmpd_14 Bus1=173_566 Bus2=173_627 phases=3 Linecode=2c_.04 Length=8.09387 Units=m
New Line.LINE173_Cmpd_15 Bus1=173_331 Bus2=173_383 phases=3 Linecode=4c_.25 Length=30.74332 Units=m
New Line.LINE173_Cmpd_16 Bus1=173_1078 Bus2=173_1131 phases=3 Linecode=2c_.04 Length=12.92665 Units=m
New Line.LINE173_Cmpd_17 Bus1=173_99 Bus2=173_280 phases=3 Linecode=2c_.007 Length=3.944112 Units=m
New Line.LINE173_Cmpd_18 Bus1=173_503 Bus2=173_642 phases=3 Linecode=2c_.04 Length=8.60349 Units=m
New Line.LINE173_Cmpd_19 Bus1=173_192 Bus2=173_262 phases=3 Linecode=2c_.04 Length=16.44198 Units=m
New Line.LINE173_Cmpd_20 Bus1=173_930 Bus2=173_1035 phases=3 Linecode=4c_.06 Length=20.80486 Units=m
New Line.LINE173_Cmpd_21 Bus1=173_1057 Bus2=173_1097 phases=3 Linecode=2c_.04 Length=11.13017 Units=m
New Line.LINE173_Cmpd_22 Bus1=173_148 Bus2=173_223 phases=3 Linecode=4c_.12 Length=11.87556 Units=m
New Line.LINE173_Cmpd_23 Bus1=173_551 Bus2=173_566 phases=3 Linecode=4c_.04 Length=13.3284 Units=m
New Line.LINE173_Cmpd_24 Bus1=173_409 Bus2=173_424 phases=3 Linecode=4c_.25 Length=20.5007 Units=m
New Line.LINE173_Cmpd_25 Bus1=173_596 Bus2=173_753 phases=3 Linecode=2c_.04 Length=17.739379 Units=m
New Line.LINE173_Cmpd_26 Bus1=173_566 Bus2=173_639 phases=3 Linecode=2c_.04 Length=5.579113 Units=m
New Line.LINE173_Cmpd_27 Bus1=173_138 Bus2=173_178 phases=3 Linecode=4c_.25 Length=26.5308 Units=m
New Line.LINE173_Cmpd_28 Bus1=173_41 Bus2=173_106 phases=3 Linecode=4_XSC Length=1.042404 Units=m
New Line.LINE173_Cmpd_29 Bus1=173_460 Bus2=173_536 phases=3 Linecode=2c_.04 Length=8.35417 Units=m
New Line.LINE173_Cmpd_30 Bus1=173_602 Bus2=173_743 phases=3 Linecode=2c_.04 Length=12.55361 Units=m
New Line.LINE173_Cmpd_31 Bus1=173_359 Bus2=173_445 phases=3 Linecode=2c_.04 Length=17.863558 Units=m
New Line.LINE173_Cmpd_32 Bus1=173_48 Bus2=173_201 phases=3 Linecode=2c_.007 Length=3.34363 Units=m
New Line.LINE173_Cmpd_33 Bus1=173_938 Bus2=173_977 phases=3 Linecode=2c_.04 Length=3.53269 Units=m
New Line.LINE173_Cmpd_34 Bus1=173_457 Bus2=173_503 phases=3 Linecode=2c_.04 Length=2.45067 Units=m
New Line.LINE173_Cmpd_35 Bus1=173_1021 Bus2=173_1066 phases=3 Linecode=2c_.04 Length=9.28829 Units=m
New Line.LINE173_Cmpd_36 Bus1=173_784 Bus2=173_887 phases=3 Linecode=2c_.04 Length=12.82035 Units=m
New Line.LINE173_Cmpd_37 Bus1=173_748 Bus2=173_784 phases=3 Linecode=2c_.04 Length=1.68039 Units=m
New Line.LINE173_Cmpd_38 Bus1=173_639 Bus2=173_768 phases=3 Linecode=2c_.04 Length=13.265318 Units=m
New Line.LINE173_Cmpd_39 Bus1=173_321 Bus2=173_374 phases=3 Linecode=2c_.04 Length=13.021109 Units=m
New Line.LINE173_Cmpd_40 Bus1=173_409 Bus2=173_454 phases=3 Linecode=4_XC Length=1.77798 Units=m
New Line.LINE173_Cmpd_41 Bus1=173_976 Bus2=173_1039 phases=3 Linecode=2c_.04 Length=13.83188 Units=m
New Line.LINE173_Cmpd_42 Bus1=173_95 Bus2=173_192 phases=3 Linecode=2c_.04 Length=7.22043 Units=m
New Line.LINE173_Cmpd_43 Bus1=173_391 Bus2=173_426 phases=3 Linecode=2c_.04 Length=14.29098 Units=m
New Line.LINE173_Cmpd_44 Bus1=173_424 Bus2=173_551 phases=3 Linecode=4c_.06 Length=25.44466 Units=m
New Line.LINE173_Cmpd_45 Bus1=173_627 Bus2=173_734 phases=3 Linecode=2c_.04 Length=13.983375 Units=m
New Line.LINE173_Cmpd_46 Bus1=173_292 Bus2=173_354 phases=3 Linecode=2c_.04 Length=14.93553 Units=m
New Line.LINE173_Cmpd_47 Bus1=173_1035 Bus2=173_1057 phases=3 Linecode=2c_.04 Length=4.40961 Units=m
New Line.LINE173_Cmpd_48 Bus1=173_36 Bus2=173_68 phases=3 Linecode=2c_.04 Length=12.772926 Units=m
New Line.LINE173_Cmpd_49 Bus1=173_938 Bus2=173_976 phases=3 Linecode=2c_.04 Length=2.26856 Units=m
New Line.LINE173_Cmpd_50 Bus1=173_1094 Bus2=173_1133 phases=3 Linecode=2c_.04 Length=11.244208 Units=m
New Line.LINE173_Cmpd_51 Bus1=173_430 Bus2=173_473 phases=3 Linecode=4c_.25 Length=1.40948 Units=m
New Line.LINE173_Cmpd_52 Bus1=173_591 Bus2=173_738 phases=3 Linecode=4_XSC Length=2.106919 Units=m
New Line.LINE173_Cmpd_53 Bus1=173_729 Bus2=173_839 phases=3 Linecode=4c_.06 Length=22.28137 Units=m
New Line.LINE173_Cmpd_54 Bus1=173_426 Bus2=173_466 phases=3 Linecode=2c_.04 Length=2.02088 Units=m
New Line.LINE173_Cmpd_55 Bus1=173_839 Bus2=173_988 phases=3 Linecode=4_XSC Length=3.534494 Units=m
New Line.LINE173_Cmpd_56 Bus1=173_756 Bus2=173_888 phases=3 Linecode=25_SAC_PC Length=12.791845 Units=m
New Line.LINE173_Cmpd_57 Bus1=173_812 Bus2=173_954 phases=3 Linecode=4_XSC Length=1.630154 Units=m
New Line.LINE173_Cmpd_58 Bus1=173_565 Bus2=173_615 phases=3 Linecode=2c_.04 Length=3.30708 Units=m
New Line.LINE173_Cmpd_59 Bus1=173_839 Bus2=173_873 phases=3 Linecode=4c_.06 Length=5.04086 Units=m
New Line.LINE173_Cmpd_60 Bus1=173_812 Bus2=173_930 phases=3 Linecode=4c_.06 Length=14.90618 Units=m
New Line.LINE173_Cmpd_61 Bus1=173_279 Bus2=173_302 phases=3 Linecode=2c_.04 Length=11.10681 Units=m
New Line.LINE173_Cmpd_62 Bus1=173_914 Bus2=173_989 phases=3 Linecode=2c_.04 Length=10.81534 Units=m
New Line.LINE173_Cmpd_63 Bus1=173_512 Bus2=173_632 phases=3 Linecode=2c_.04 Length=8.305722 Units=m
New Line.LINE173_Cmpd_64 Bus1=173_58 Bus2=173_101 phases=3 Linecode=2c_.04 Length=2.4067 Units=m
New Line.LINE173_Cmpd_65 Bus1=173_78 Bus2=173_99 phases=3 Linecode=4c_.25 Length=12.5132 Units=m
New Line.LINE173_Cmpd_66 Bus1=173_642 Bus2=173_822 phases=3 Linecode=2c_.04 Length=18.42933 Units=m
New Line.LINE173_Cmpd_67 Bus1=173_78 Bus2=173_151 phases=3 Linecode=2c_.04 Length=9.07832 Units=m
New Line.LINE173_Cmpd_68 Bus1=173_915 Bus2=173_995 phases=3 Linecode=2c_.04 Length=12.83773 Units=m
New Line.LINE173_Cmpd_69 Bus1=173_1 Bus2=173_29 phases=3 Linecode=3c_300_SAC_XC Length=44.000436 Units=m
New Line.LINE173_Cmpd_70 Bus1=173_198 Bus2=173_273 phases=3 Linecode=2c_.04 Length=14.57739 Units=m
New Line.LINE173_Cmpd_71 Bus1=173_101 Bus2=173_198 phases=3 Linecode=2c_.04 Length=7.454113 Units=m
New Line.LINE173_Cmpd_72 Bus1=173_996 Bus2=173_1021 phases=3 Linecode=2c_.04 Length=2.14587 Units=m
New Line.LINE173_Cmpd_73 Bus1=173_557 Bus2=173_591 phases=3 Linecode=4c_.06 Length=15.1527 Units=m
New Line.LINE173_Cmpd_74 Bus1=173_331 Bus2=173_359 phases=3 Linecode=2c_.04 Length=11.4613 Units=m
New Line.LINE173_Cmpd_75 Bus1=173_977 Bus2=173_1040 phases=3 Linecode=2c_.04 Length=13.54079 Units=m
New Line.LINE173_Cmpd_76 Bus1=173_115 Bus2=173_138 phases=3 Linecode=4c_.25 Length=23.9687 Units=m
New Line.LINE173_Cmpd_77 Bus1=173_1031 Bus2=173_1078 phases=3 Linecode=2c_.04 Length=10.31151 Units=m
New Line.LINE173_Cmpd_78 Bus1=173_457 Bus2=173_512 phases=3 Linecode=2c_.04 Length=2.614397 Units=m
New Line.LINE173_Cmpd_79 Bus1=173_881 Bus2=173_914 phases=3 Linecode=2c_.04 Length=3.2694 Units=m
New Line.LINE173_Cmpd_80 Bus1=173_148 Bus2=173_170 phases=3 Linecode=4c_.25 Length=22.0155 Units=m
New Line.LINE173_Cmpd_81 Bus1=173_756 Bus2=173_793 phases=3 Linecode=2c_.04 Length=6.33168 Units=m
New Line.LINE173_Cmpd_82 Bus1=173_873 Bus2=173_996 phases=3 Linecode=4c_.04 Length=19.77659 Units=m
New Line.LINE173_Cmpd_83 Bus1=173_252 Bus2=173_267 phases=3 Linecode=2c_.04 Length=10.56562 Units=m
New Line.LINE173_Cmpd_84 Bus1=173_426 Bus2=173_460 phases=3 Linecode=2c_.04 Length=2.23389 Units=m
New Line.LINE173_Cmpd_85 Bus1=173_848 Bus2=173_953 phases=3 Linecode=2c_.04 Length=13.02534 Units=m
New Line.LINE173_Cmpd_86 Bus1=173_279 Bus2=173_288 phases=3 Linecode=4c_.25 Length=14.0518 Units=m
New Line.LINE173_Cmpd_87 Bus1=173_383 Bus2=173_391 phases=3 Linecode=4c_.25 Length=25.2208 Units=m
New Line.LINE173_Cmpd_88 Bus1=173_466 Bus2=173_563 phases=3 Linecode=2c_.04 Length=8.05016 Units=m
New Line.LINE173_Cmpd_89 Bus1=173_391 Bus2=173_399 phases=3 Linecode=4c_.25 Length=10.2943 Units=m
New Line.LINE173_Cmpd_90 Bus1=173_52 Bus2=173_78 phases=3 Linecode=4c_.25 Length=29.8061 Units=m
New Line.LINE173_Cmpd_91 Bus1=173_709 Bus2=173_797 phases=3 Linecode=4c_.06 Length=10.47066 Units=m
New Line.LINE173_Cmpd_92 Bus1=173_803 Bus2=173_848 phases=3 Linecode=2c_.04 Length=2.69254 Units=m
New Line.LINE173_Cmpd_93 Bus1=173_399 Bus2=173_427 phases=3 Linecode=2c_.007 Length=1.56604 Units=m
New Line.LINE173_Cmpd_94 Bus1=173_646 Bus2=173_709 phases=3 Linecode=4c_.06 Length=5.46057 Units=m
New Line.LINE173_Cmpd_95 Bus1=173_383 Bus2=173_405 phases=3 Linecode=2c_.04 Length=14.83321 Units=m
New Line.LINE173_Cmpd_96 Bus1=173_1097 Bus2=173_1129 phases=3 Linecode=2c_.04 Length=13.02313 Units=m
New Line.LINE173_Cmpd_97 Bus1=173_996 Bus2=173_1031 phases=3 Linecode=2c_.04 Length=5.037589 Units=m
New Line.LINE173_Cmpd_98 Bus1=173_729 Bus2=173_748 phases=3 Linecode=4c_.04 Length=14.7998 Units=m
New Line.LINE173_Cmpd_99 Bus1=173_151 Bus2=173_173 phases=3 Linecode=2c_.04 Length=8.9464 Units=m
New Line.LINE173_Cmpd_100 Bus1=173_302 Bus2=173_341 phases=3 Linecode=2c_.04 Length=14.77645 Units=m
New Line.LINE173_Cmpd_101 Bus1=173_565 Bus2=173_602 phases=3 Linecode=2c_.04 Length=5.76895 Units=m
New Line.LINE173_Cmpd_102 Bus1=173_430 Bus2=173_450 phases=3 Linecode=4c_.25 Length=26.9536 Units=m
New Line.LINE173_Cmpd_103 Bus1=173_881 Bus2=173_915 phases=3 Linecode=2c_.04 Length=3.44817 Units=m
New Line.LINE173_Cmpd_104 Bus1=173_99 Bus2=173_115 phases=3 Linecode=4c_.25 Length=10.729 Units=m
New Line.LINE173_Cmpd_105 Bus1=173_138 Bus2=173_179 phases=3 Linecode=4c_.25 Length=26.5497 Units=m
New Line.LINE173_Cmpd_106 Bus1=173_58 Bus2=173_95 phases=3 Linecode=2c_.04 Length=7.54919 Units=m
New Line.LINE173_Cmpd_107 Bus1=173_450 Bus2=173_470 phases=3 Linecode=4c_.25 Length=26.3591 Units=m
New Line.LINE173_Cmpd_108 Bus1=173_115 Bus2=173_160 phases=3 Linecode=4c_.25 Length=0.647896 Units=m
New Line.LINE173_Cmpd_109 Bus1=173_316 Bus2=173_331 phases=3 Linecode=4c_.25 Length=23.1557 Units=m
New Line.LINE173_Cmpd_110 Bus1=173_300 Bus2=173_316 phases=3 Linecode=4c_.25 Length=14.6489 Units=m
New Line.LINE173_Cmpd_111 Bus1=173_803 Bus2=173_841 phases=3 Linecode=2c_.04 Length=5.28008 Units=m
New Line.LINE173_Cmpd_112 Bus1=173_68 Bus2=173_83 phases=3 Linecode=2c_.04 Length=10.6066 Units=m
New Line.LINE173_Cmpd_113 Bus1=173_478 Bus2=173_493 phases=3 Linecode=4c_.25 Length=6.7756 Units=m
New Line.LINE173_Cmpd_114 Bus1=173_797 Bus2=173_812 phases=3 Linecode=4c_.06 Length=13.6326 Units=m
New Line.LINE173_Cmpd_115 Bus1=173_1035 Bus2=173_1058 phases=3 Linecode=2c_.04 Length=3.08325 Units=m
New Line.LINE173_Cmpd_116 Bus1=173_399 Bus2=173_409 phases=3 Linecode=4c_.25 Length=18.3557 Units=m
New Line.LINE173_Cmpd_117 Bus1=173_36 Bus2=173_41 phases=3 Linecode=4c_.25 Length=17.0096 Units=m
