Test_Network/network_26/Feeder_4/LoadsCopyUnq.txt
New Load.LOAD174_1 Phases=1 Bus1=174_104.3 kV=0.23 kW=1 PF=0.95
New Load.LOAD174_2 Phases=1 Bus1=174_106.1 kV=0.23 kW=1 PF=0.95
New Load.LOAD174_3 Phases=1 Bus1=174_114.1 kV=0.23 kW=1 PF=0.95
New Load.LOAD174_4 Phases=1 Bus1=174_116.2 kV=0.23 kW=1 PF=0.95
New Load.LOAD174_5 Phases=1 Bus1=174_173.1 kV=0.23 kW=1 PF=0.95
New Load.LOAD174_6 Phases=1 Bus1=174_194.3 kV=0.23 kW=1 PF=0.95
New Load.LOAD174_7 Phases=1 Bus1=174_196.1 kV=0.23 kW=1 PF=0.95
New Load.LOAD174_8 Phases=1 Bus1=174_200.1 kV=0.23 kW=1 PF=0.95
New Load.LOAD174_9 Phases=1 Bus1=174_215.2 kV=0.23 kW=1 PF=0.95
New Load.LOAD174_10 Phases=1 Bus1=174_247.3 kV=0.23 kW=1 PF=0.95
New Load.LOAD174_11 Phases=1 Bus1=174_348.1 kV=0.23 kW=1 PF=0.95
New Load.LOAD174_12 Phases=1 Bus1=174_366.1 kV=0.23 kW=1 PF=0.95
New Load.LOAD174_13 Phases=1 Bus1=174_367.1 kV=0.23 kW=1 PF=0.95
New Load.LOAD174_14 Phases=1 Bus1=174_368.1 kV=0.23 kW=1 PF=0.95
New Load.LOAD174_15 Phases=1 Bus1=174_369.1 kV=0.23 kW=1 PF=0.95
New Load.LOAD174_16 Phases=1 Bus1=174_378.2 kV=0.23 kW=1 PF=0.95
New Load.LOAD174_17 Phases=1 Bus1=174_382.3 kV=0.23 kW=1 PF=0.95
New Load.LOAD174_18 Phases=1 Bus1=174_383.2 kV=0.23 kW=1 PF=0.95
New Load.LOAD174_19 Phases=1 Bus1=174_385.1 kV=0.23 kW=1 PF=0.95
New Load.LOAD174_20 Phases=1 Bus1=174_405.1 kV=0.23 kW=1 PF=0.95
New Load.LOAD174_21 Phases=1 Bus1=174_410.3 kV=0.23 kW=1 PF=0.95
New Load.LOAD174_22 Phases=1 Bus1=174_411.3 kV=0.23 kW=1 PF=0.95
New Load.LOAD174_23 Phases=1 Bus1=174_412.3 kV=0.23 kW=1 PF=0.95
New Load.LOAD174_24 Phases=1 Bus1=174_413.3 kV=0.23 kW=1 PF=0.95
New Load.LOAD174_25 Phases=1 Bus1=174_414.3 kV=0.23 kW=1 PF=0.95
New Load.LOAD174_26 Phases=1 Bus1=174_452.1 kV=0.23 kW=1 PF=0.95
New Load.LOAD174_27 Phases=1 Bus1=174_461.1 kV=0.23 kW=1 PF=0.95
New Load.LOAD174_28 Phases=1 Bus1=174_462.1 kV=0.23 kW=1 PF=0.95
New Load.LOAD174_29 Phases=1 Bus1=174_478.2 kV=0.23 kW=1 PF=0.95
New Load.LOAD174_30 Phases=1 Bus1=174_497.3 kV=0.23 kW=1 PF=0.95
New Load.LOAD174_31 Phases=1 Bus1=174_508.3 kV=0.23 kW=1 PF=0.95
New Load.LOAD174_32 Phases=1 Bus1=174_527.2 kV=0.23 kW=1 PF=0.95
New Load.LOAD174_33 Phases=1 Bus1=174_560.2 kV=0.23 kW=1 PF=0.95
New Load.LOAD174_34 Phases=1 Bus1=174_564.3 kV=0.23 kW=1 PF=0.95
New Load.LOAD174_35 Phases=1 Bus1=174_566.2 kV=0.23 kW=1 PF=0.95
New Load.LOAD174_36 Phases=1 Bus1=174_567.2 kV=0.23 kW=1 PF=0.95
New Load.LOAD174_37 Phases=1 Bus1=174_581.2 kV=0.23 kW=1 PF=0.95
New Load.LOAD174_38 Phases=1 Bus1=174_610.3 kV=0.23 kW=1 PF=0.95
New Load.LOAD174_39 Phases=1 Bus1=174_632.2 kV=0.23 kW=1 PF=0.95
New Load.LOAD174_40 Phases=1 Bus1=174_666.1 kV=0.23 kW=1 PF=0.95
New Load.LOAD174_41 Phases=1 Bus1=174_667.1 kV=0.23 kW=1 PF=0.95
New Load.LOAD174_42 Phases=1 Bus1=174_684.3 kV=0.23 kW=1 PF=0.95
New Load.LOAD174_43 Phases=1 Bus1=174_691.1 kV=0.23 kW=1 PF=0.95
New Load.LOAD174_44 Phases=1 Bus1=174_707.2 kV=0.23 kW=1 PF=0.95
New Load.LOAD174_45 Phases=1 Bus1=174_741.1 kV=0.23 kW=1 PF=0.95
New Load.LOAD174_46 Phases=1 Bus1=174_743.2 kV=0.23 kW=1 PF=0.95
New Load.LOAD174_47 Phases=1 Bus1=174_752.3 kV=0.23 kW=1 PF=0.95
New Load.LOAD174_48 Phases=1 Bus1=174_771.1 kV=0.23 kW=1 PF=0.95
New Load.LOAD174_49 Phases=1 Bus1=174_785.2 kV=0.23 kW=1 PF=0.95
New Load.LOAD174_50 Phases=1 Bus1=174_798.1 kV=0.23 kW=1 PF=0.95
New Load.LOAD174_51 Phases=1 Bus1=174_815.1 kV=0.23 kW=1 PF=0.95
New Load.LOAD174_52 Phases=1 Bus1=174_816.2 kV=0.23 kW=1 PF=0.95
New Load.LOAD174_53 Phases=1 Bus1=174_817.2 kV=0.23 kW=1 PF=0.95
New Load.LOAD174_54 Phases=1 Bus1=174_829.1 kV=0.23 kW=1 PF=0.95
New Load.LOAD174_55 Phases=1 Bus1=174_853.2 kV=0.23 kW=1 PF=0.95
New Load.LOAD174_56 Phases=1 Bus1=174_873.3 kV=0.23 kW=1 PF=0.95
New Load.LOAD174_57 Phases=1 Bus1=174_878.3 kV=0.23 kW=1 PF=0.95
New Load.LOAD174_58 Phases=1 Bus1=174_929.1 kV=0.23 kW=1 PF=0.95
New Load.LOAD174_59 Phases=1 Bus1=174_932.3 kV=0.23 kW=1 PF=0.95
New Load.LOAD174_60 Phases=1 Bus1=174_933.3 kV=0.23 kW=1 PF=0.95
New Load.LOAD174_61 Phases=1 Bus1=174_943.1 kV=0.23 kW=1 PF=0.95
New Load.LOAD174_62 Phases=1 Bus1=174_956.3 kV=0.23 kW=1 PF=0.95
New Load.LOAD174_63 Phases=1 Bus1=174_957.3 kV=0.23 kW=1 PF=0.95
New Load.LOAD174_64 Phases=1 Bus1=174_961.1 kV=0.23 kW=1 PF=0.95
New Load.LOAD174_65 Phases=1 Bus1=174_962.1 kV=0.23 kW=1 PF=0.95
New Load.LOAD174_66 Phases=1 Bus1=174_1000.1 kV=0.23 kW=1 PF=0.95
New Load.LOAD174_67 Phases=1 Bus1=174_1020.1 kV=0.23 kW=1 PF=0.95
New Load.LOAD174_68 Phases=1 Bus1=174_1021.1 kV=0.23 kW=1 PF=0.95
New Load.LOAD174_69 Phases=1 Bus1=174_1024.3 kV=0.23 kW=1 PF=0.95
New Load.LOAD174_70 Phases=1 Bus1=174_1055.1 kV=0.23 kW=1 PF=0.95
New Load.LOAD174_71 Phases=1 Bus1=174_1077.3 kV=0.23 kW=1 PF=0.95
New Load.LOAD174_72 Phases=1 Bus1=174_1090.3 kV=0.23 kW=1 PF=0.95
New Load.LOAD174_73 Phases=1 Bus1=174_1110.2 kV=0.23 kW=1 PF=0.95
New Load.LOAD174_74 Phases=1 Bus1=174_1111.2 kV=0.23 kW=1 PF=0.95
New Load.LOAD174_75 Phases=1 Bus1=174_1140.1 kV=0.23 kW=1 PF=0.95
New Load.LOAD174_76 Phases=1 Bus1=174_1170.1 kV=0.23 kW=1 PF=0.95
...